3RSV_5836
  MOE2015           3D

 65 68  0  0  1  0  0  0  0  0999 V2000
   18.0790   11.7520   23.8730 C   0  0  0  0  0  0  0  0  0  0  0  0
   18.5600   12.7290   23.9130 H   0  0  0  0  0  0  0  0  0  0  0  0
   18.7410   11.0410   23.3790 H   0  0  0  0  0  0  0  0  0  0  0  0
   16.7990   11.8760   23.0470 C   0  0  0  0  0  0  0  0  0  0  0  0
   15.9520   13.0860   23.5040 C   0  0  0  0  0  0  0  0  0  0  0  0
   16.5460   13.9960   23.4250 H   0  0  0  0  0  0  0  0  0  0  0  0
   15.6430   12.9430   24.5390 H   0  0  0  0  0  0  0  0  0  0  0  0
   15.0690   13.1720   22.8700 H   0  0  0  0  0  0  0  0  0  0  0  0
   17.1950   12.0290   21.5850 C   0  0  0  0  0  0  0  0  0  0  0  0
   17.7720   12.9450   21.4590 H   0  0  0  0  0  0  0  0  0  0  0  0
   16.2970   12.0770   20.9690 H   0  0  0  0  0  0  0  0  0  0  0  0
   17.7990   11.1740   21.2810 H   0  0  0  0  0  0  0  0  0  0  0  0
   16.0310   10.6310   23.1400 O   0  0  0  0  0  0  0  0  0  0  0  0
   15.7120   10.1810   24.4990 C   0  0  0  0  0  0  0  0  0  0  0  0
   15.1770    9.2330   24.4480 H   0  0  0  0  0  0  0  0  0  0  0  0
   15.0840   10.9270   24.9870 H   0  0  0  0  0  0  0  0  0  0  0  0
   16.9990    9.9930   25.3110 C   0  0  0  0  0  0  0  0  0  0  0  0
   17.5830    9.1840   24.8720 H   0  0  0  0  0  0  0  0  0  0  0  0
   16.7390    9.7380   26.3380 H   0  0  0  0  0  0  0  0  0  0  0  0
   17.8350   11.2720   25.3090 C   0  0  3  0  0  0  0  0  0  0  0  0
   17.2970   12.0270   25.8830 H   0  0  0  0  0  0  0  0  0  0  0  0
   19.1590   10.9850   25.8800 N   0  0  0  0  0  0  0  0  0  0  0  0
   19.4850   10.0290   25.8850 H   0  0  0  0  0  0  0  0  0  0  0  0
   19.9480   11.9290   26.3910 C   0  0  0  0  0  0  0  0  0  0  0  0
   19.6390   13.1150   26.4630 O   0  0  0  0  0  0  0  0  0  0  0  0
   21.3180   11.4470   26.8880 C   0  0  3  0  0  0  0  0  0  0  0  0
   21.3630   10.3580   26.8970 H   0  0  0  0  0  0  0  0  0  0  0  0
   21.5190   11.9280   28.3310 C   0  0  0  0  0  0  0  0  0  0  0  0
   21.4800   13.0170   28.3600 H   0  0  0  0  0  0  0  0  0  0  0  0
   22.4890   11.5890   28.6950 H   0  0  0  0  0  0  0  0  0  0  0  0
   20.7310   11.5200   28.9630 H   0  0  0  0  0  0  0  0  0  0  0  0
   22.4500   11.9050   25.9110 C   0  0  0  0  0  0  0  0  0  0  0  0
   23.4080   11.5080   26.2470 H   0  0  0  0  0  0  0  0  0  0  0  0
   22.4960   12.9940   25.8870 H   0  0  0  0  0  0  0  0  0  0  0  0
   22.1300   11.3650   24.4960 C   0  0  0  0  0  0  0  0  0  0  0  0
   22.1470   10.0010   24.1470 C   0  0  0  0  0  0  0  0  0  0  0  0
   21.8290    9.5900   22.9070 N   0  0  0  0  0  0  0  0  0  0  0  0
   22.4860    9.0700   25.0250 N   0  0  0  0  0  0  0  0  0  0  0  0
   22.4980    8.0980   24.7510 H   0  0  0  0  0  0  0  0  0  0  0  0
   22.7330    9.3320   25.9690 H   0  0  0  0  0  0  0  0  0  0  0  0
   21.7690   12.2790   23.4950 C   0  0  0  0  0  0  0  0  0  0  0  0
   21.7370   13.3350   23.7190 H   0  0  0  0  0  0  0  0  0  0  0  0
   21.4490   11.8290   22.2030 C   0  0  0  0  0  0  0  0  0  0  0  0
   21.0860   12.7200   21.1770 C   0  0  0  0  0  0  0  0  0  0  0  0
   21.0430   13.7810   21.3730 H   0  0  0  0  0  0  0  0  0  0  0  0
   21.4850   10.4530   21.9400 C   0  0  0  0  0  0  0  0  0  0  0  0
   21.1710    9.9610   20.6720 C   0  0  0  0  0  0  0  0  0  0  0  0
   21.2020    8.8990   20.4790 H   0  0  0  0  0  0  0  0  0  0  0  0
   20.8170   10.8480   19.6570 C   0  0  0  0  0  0  0  0  0  0  0  0
   20.5700   10.4690   18.6760 H   0  0  0  0  0  0  0  0  0  0  0  0
   20.7790   12.2280   19.8980 C   0  0  0  0  0  0  0  0  0  0  0  0
   20.4200   13.0680   18.8360 C   0  0  0  0  0  0  0  0  0  0  0  0
   19.1180   12.9970   18.3330 C   0  0  0  0  0  0  0  0  0  0  0  0
   18.4090   12.3110   18.7730 H   0  0  0  0  0  0  0  0  0  0  0  0
   18.7300   13.8040   17.2710 C   0  0  0  0  0  0  0  0  0  0  0  0
   17.7210   13.7480   16.8900 H   0  0  0  0  0  0  0  0  0  0  0  0
   19.6450   14.6870   16.6970 C   0  0  0  0  0  0  0  0  0  0  0  0
   19.3390   15.3130   15.8720 H   0  0  0  0  0  0  0  0  0  0  0  0
   20.9480   14.7690   17.1780 C   0  0  0  0  0  0  0  0  0  0  0  0
   21.6500   15.4570   16.7310 H   0  0  0  0  0  0  0  0  0  0  0  0
   21.3410   13.9560   18.2420 C   0  0  0  0  0  0  0  0  0  0  0  0
   22.7960   14.1040   18.7240 C   0  0  0  0  0  0  0  0  0  0  0  0
   22.9760   13.4190   19.5530 H   0  0  0  0  0  0  0  0  0  0  0  0
   22.9670   15.1280   19.0550 H   0  0  0  0  0  0  0  0  0  0  0  0
   23.4760   13.8690   17.9050 H   0  0  0  0  0  0  0  0  0  0  0  0
  1  2  1  0  0  0  0
  1  3  1  0  0  0  0
  1  4  1  0  0  0  0
  1 20  1  0  0  0  0
  4  5  1  0  0  0  0
  4  9  1  0  0  0  0
  4 13  1  0  0  0  0
  5  6  1  0  0  0  0
  5  7  1  0  0  0  0
  5  8  1  0  0  0  0
  9 10  1  0  0  0  0
  9 11  1  0  0  0  0
  9 12  1  0  0  0  0
 13 14  1  0  0  0  0
 14 15  1  0  0  0  0
 14 16  1  0  0  0  0
 14 17  1  0  0  0  0
 17 18  1  0  0  0  0
 17 19  1  0  0  0  0
 17 20  1  0  0  0  0
 20 21  1  0  0  0  0
 20 22  1  0  0  0  0
 22 23  1  0  0  0  0
 22 24  1  0  0  0  0
 24 25  2  0  0  0  0
 24 26  1  0  0  0  0
 26 27  1  0  0  0  0
 26 28  1  0  0  0  0
 26 32  1  0  0  0  0
 28 29  1  0  0  0  0
 28 30  1  0  0  0  0
 28 31  1  0  0  0  0
 32 33  1  0  0  0  0
 32 34  1  0  0  0  0
 32 35  1  0  0  0  0
 35 36  2  0  0  0  0
 35 41  1  0  0  0  0
 36 37  1  0  0  0  0
 36 38  1  0  0  0  0
 37 46  2  0  0  0  0
 38 39  1  0  0  0  0
 38 40  1  0  0  0  0
 41 42  1  0  0  0  0
 41 43  2  0  0  0  0
 43 44  1  0  0  0  0
 43 46  1  0  0  0  0
 44 45  1  0  0  0  0
 44 51  2  0  0  0  0
 46 47  1  0  0  0  0
 47 48  1  0  0  0  0
 47 49  2  0  0  0  0
 49 50  1  0  0  0  0
 49 51  1  0  0  0  0
 51 52  1  0  0  0  0
 52 53  1  0  0  0  0
 52 61  2  0  0  0  0
 53 54  1  0  0  0  0
 53 55  2  0  0  0  0
 55 56  1  0  0  0  0
 55 57  1  0  0  0  0
 57 58  1  0  0  0  0
 57 59  2  0  0  0  0
 59 60  1  0  0  0  0
 59 61  1  0  0  0  0
 61 62  1  0  0  0  0
 62 63  1  0  0  0  0
 62 64  1  0  0  0  0
 62 65  1  0  0  0  0
M  END
>  <PARENT_CMPD_ID>
3RSV

>  <STANDARD_TYPE>
IC50

>  <RELATION>
=

>  <STANDARD_VALUE>
0.00069999998

>  <STANDARD_UNITS>
uM

>  <COMPOUND_KEY>
57

>  <PUBMED_ID>
21707077

>  <JOURNAL>
J.Med.Chem.

>  <YEAR>
2011

>  <VOLUME>
54

>  <FIRST_PAGE>
5836

>  <Company>
Amgen

>  <Resolution>
2.5

>  <idx>
1

>  <Model>
Train

>  <target>
9.1549015

>  <des_pred_mlr>
7.34094

>  <RF_Canvas>
8.2901201

>  <DNN_Canvas>
8.0791502

>  <pred_CoMFA>
8.4920998

>  <pred_COMSIA>
8.0557003

>  <pred_abm5>
8.6609163

>  <pred_ff8>
6.0518522

>  <pred_gau6>
7.9854331

>  <CID>
BACE_1

>  <active>
1

>  <des_class_bayes>
1

>  <maacs_class_bayes>
0

>  <radial_class_bayes>
1

>  <dend_class_bayes>
1

>  <molprint_class_bayes>
1

>  <RF_canvas>
1

>  <DNN_canvas>
1

$$$$
3R2F_6916
  MOE2015           3D

 98101  0  0  1  0  0  0  0  0999 V2000
   25.1250   20.4600   25.3770 C   0  0  0  0  0  0  0  0  0  0  0  0
   25.0110   21.5340   25.3990 H   0  0  0  0  0  0  0  0  0  0  0  0
   24.5530   19.6790   26.3820 C   0  0  0  0  0  0  0  0  0  0  0  0
   23.9970   20.1390   27.1860 H   0  0  0  0  0  0  0  0  0  0  0  0
   25.8500   19.8520   24.3350 C   0  0  0  0  0  0  0  0  0  0  0  0
   26.2880   20.4650   23.5610 H   0  0  0  0  0  0  0  0  0  0  0  0
   24.7120   18.2920   26.3300 C   0  0  0  0  0  0  0  0  0  0  0  0
   24.2700   17.6760   27.0990 H   0  0  0  0  0  0  0  0  0  0  0  0
   26.0110   18.4630   24.2890 C   0  0  0  0  0  0  0  0  0  0  0  0
   26.5700   17.9990   23.4900 H   0  0  0  0  0  0  0  0  0  0  0  0
   23.1870   11.8460   20.3250 C   0  0  0  0  0  0  0  0  0  0  0  0
   22.2260   12.1450   20.7180 H   0  0  0  0  0  0  0  0  0  0  0  0
   25.1040   10.4330   20.3920 C   0  0  0  0  0  0  0  0  0  0  0  0
   25.6580    9.6180   20.8340 H   0  0  0  0  0  0  0  0  0  0  0  0
   24.9360   12.1640   18.6930 C   0  0  0  0  0  0  0  0  0  0  0  0
   25.3360   12.6830   17.8350 H   0  0  0  0  0  0  0  0  0  0  0  0
   25.4350   17.6910   25.2960 C   0  0  0  0  0  0  0  0  0  0  0  0
   23.8700   10.7920   20.9260 C   0  0  0  0  0  0  0  0  0  0  0  0
   23.7120   12.5220   19.2320 C   0  0  0  0  0  0  0  0  0  0  0  0
   25.6390   11.1160   19.2860 C   0  0  0  0  0  0  0  0  0  0  0  0
   27.1750   13.4880   23.6660 C   0  0  0  0  0  0  0  0  0  0  0  0
   29.7210   15.1070   22.9300 C   0  0  0  0  0  0  0  0  0  0  0  0
   23.6640   13.1990   23.8080 C   0  0  0  0  0  0  0  0  0  0  0  0
   27.2350   14.1150   21.3400 C   0  0  0  0  0  0  0  0  0  0  0  0
   27.5580   15.1550   21.2900 H   0  0  0  0  0  0  0  0  0  0  0  0
   27.3370   13.6550   20.3570 H   0  0  0  0  0  0  0  0  0  0  0  0
   20.4890   11.9020   25.1990 C   0  0  0  0  0  0  0  0  0  0  0  0
   20.8500   12.9300   25.1550 H   0  0  0  0  0  0  0  0  0  0  0  0
   20.0890   11.6150   24.2260 H   0  0  0  0  0  0  0  0  0  0  0  0
   25.8080   13.9890   21.8800 C   0  0  0  0  0  0  0  0  0  0  0  0
   25.3190   13.1130   21.4530 H   0  0  0  0  0  0  0  0  0  0  0  0
   25.2320   14.8820   21.6350 H   0  0  0  0  0  0  0  0  0  0  0  0
   20.1540   11.0320   27.3770 C   0  0  0  0  0  0  0  0  0  0  0  0
   19.4610   10.5130   28.0390 H   0  0  0  0  0  0  0  0  0  0  0  0
   20.7690   11.7180   27.9600 H   0  0  0  0  0  0  0  0  0  0  0  0
   19.4070   11.7700   26.2720 C   0  0  3  0  0  0  0  0  0  0  0  0
   18.9590   12.7220   26.5570 H   0  0  0  0  0  0  0  0  0  0  0  0
   21.6380   10.9530   25.6010 C   0  0  3  0  0  0  0  0  0  0  0  0
   22.4980   11.5110   25.9720 H   0  0  0  0  0  0  0  0  0  0  0  0
   27.9980   13.3320   22.4170 C   0  0  3  0  0  0  0  0  0  0  0  0
   31.1870   15.4700   22.9610 C   0  0  0  0  0  0  0  0  0  0  0  0
   31.7790   14.6180   22.6270 H   0  0  0  0  0  0  0  0  0  0  0  0
   31.4740   15.7350   23.9780 H   0  0  0  0  0  0  0  0  0  0  0  0
   31.3650   16.3180   22.3000 H   0  0  0  0  0  0  0  0  0  0  0  0
   16.0490    9.3610   24.5570 C   0  0  0  0  0  0  0  0  0  0  0  0
   15.6890    8.8420   23.6690 H   0  0  0  0  0  0  0  0  0  0  0  0
   15.2230    9.5050   25.2530 H   0  0  0  0  0  0  0  0  0  0  0  0
   16.8280    8.7670   25.0350 H   0  0  0  0  0  0  0  0  0  0  0  0
   28.5730    9.5930   21.4490 C   0  0  0  0  0  0  0  0  0  0  0  0
   29.4130    8.9260   21.2540 H   0  0  0  0  0  0  0  0  0  0  0  0
   27.9070    9.6000   20.5860 H   0  0  0  0  0  0  0  0  0  0  0  0
   28.0270    9.2440   22.3260 H   0  0  0  0  0  0  0  0  0  0  0  0
   29.8090   11.4690   20.4360 C   0  0  0  0  0  0  0  0  0  0  0  0
   30.6850   10.8430   20.2660 H   0  0  0  0  0  0  0  0  0  0  0  0
   30.1210   12.5070   20.5490 H   0  0  0  0  0  0  0  0  0  0  0  0
   29.1310   11.3830   19.5870 H   0  0  0  0  0  0  0  0  0  0  0  0
   25.5880   16.1920   25.2840 C   0  0  0  0  0  0  0  0  0  0  0  0
   25.5430   15.8240   26.3090 H   0  0  0  0  0  0  0  0  0  0  0  0
   26.5550   15.9390   24.8500 H   0  0  0  0  0  0  0  0  0  0  0  0
   23.2770   10.0620   22.1220 C   0  0  0  0  0  0  0  0  0  0  0  0
   24.0490    9.4200   22.5450 H   0  0  0  0  0  0  0  0  0  0  0  0
   22.4480    9.4490   21.7690 H   0  0  0  0  0  0  0  0  0  0  0  0
   27.8650   11.8720   21.9640 C   0  0  0  0  0  0  0  0  0  0  0  0
   27.2960   11.8870   21.0340 H   0  0  0  0  0  0  0  0  0  0  0  0
   27.2880   11.3610   22.7350 H   0  0  0  0  0  0  0  0  0  0  0  0
   16.6220   10.7260   24.1550 C   0  0  0  0  0  0  0  0  0  0  0  0
   15.8370   11.3080   23.6720 H   0  0  0  0  0  0  0  0  0  0  0  0
   17.4420   10.5700   23.4540 H   0  0  0  0  0  0  0  0  0  0  0  0
   24.4840   15.5150   24.4650 C   0  0  0  0  0  0  0  0  0  0  0  0
   24.4070   15.9970   23.4900 H   0  0  0  0  0  0  0  0  0  0  0  0
   23.5340   15.6050   24.9910 H   0  0  0  0  0  0  0  0  0  0  0  0
   17.1490   11.5140   25.3650 C   0  0  0  0  0  0  0  0  0  0  0  0
   16.4130   11.4910   26.1690 H   0  0  0  0  0  0  0  0  0  0  0  0
   17.3390   12.5480   25.0770 H   0  0  0  0  0  0  0  0  0  0  0  0
   24.8240   14.0400   24.2780 C   0  0  3  0  0  0  0  0  0  0  0  0
   25.1090   13.7090   25.2770 H   0  0  0  0  0  0  0  0  0  0  0  0
   22.2260   10.1380   24.4290 C   0  0  3  0  0  0  0  0  0  0  0  0
   23.1120    9.6280   24.8060 H   0  0  0  0  0  0  0  0  0  0  0  0
   29.0960   11.0120   21.7030 C   0  0  0  0  0  0  0  0  0  0  0  0
   29.7880   11.0740   22.5430 H   0  0  0  0  0  0  0  0  0  0  0  0
   22.7500   10.9840   23.2440 C   0  0  3  0  0  0  0  0  0  0  0  0
   21.9310   11.5870   22.8520 H   0  0  0  0  0  0  0  0  0  0  0  0
   21.0040   10.0590   26.6180 N   0  3  0  0  0  0  0  0  0  0  0  0
   20.4440    9.3410   26.1810 H   0  0  0  0  0  0  0  0  0  0  0  0
   21.6960    9.6290   27.2150 H   0  0  0  0  0  0  0  0  0  0  0  0
   25.9260   13.8440   23.3410 N   0  0  0  0  0  0  0  0  0  0  0  0
   29.3680   13.8690   22.5250 N   0  0  0  0  0  0  0  0  0  0  0  0
   30.1200   13.2450   22.2690 H   0  0  0  0  0  0  0  0  0  0  0  0
   23.8270   11.8630   23.7040 N   0  0  0  0  0  0  0  0  0  0  0  0
   24.7190   11.4580   23.9510 H   0  0  0  0  0  0  0  0  0  0  0  0
   27.5680   13.2710   24.7900 O   0  0  0  0  0  0  0  0  0  0  0  0
   28.9360   15.9740   23.2820 O   0  0  0  0  0  0  0  0  0  0  0  0
   22.5950   13.7100   23.5250 O   0  0  0  0  0  0  0  0  0  0  0  0
   21.2320    9.2070   23.9900 O   0  0  0  0  0  0  0  0  0  0  0  0
   20.4810    9.7130   23.6710 H   0  0  0  0  0  0  0  0  0  0  0  0
   18.3730   10.8990   25.8080 O   0  0  0  0  0  0  0  0  0  0  0  0
   23.0210   13.5220   18.6820 F   0  0  0  0  0  0  0  0  0  0  0  0
   26.8390   10.7710   18.7780 F   0  0  0  0  0  0  0  0  0  0  0  0
  1  2  1  0  0  0  0
  1  3  2  0  0  0  0
  1  5  1  0  0  0  0
  3  4  1  0  0  0  0
  3  7  1  0  0  0  0
  5  6  1  0  0  0  0
  5  9  2  0  0  0  0
  7  8  1  0  0  0  0
  7 17  2  0  0  0  0
  9 10  1  0  0  0  0
  9 17  1  0  0  0  0
 11 12  1  0  0  0  0
 11 18  2  0  0  0  0
 11 19  1  0  0  0  0
 13 14  1  0  0  0  0
 13 18  1  0  0  0  0
 13 20  2  0  0  0  0
 15 16  1  0  0  0  0
 15 19  2  0  0  0  0
 15 20  1  0  0  0  0
 17 57  1  0  0  0  0
 18 60  1  0  0  0  0
 19 97  1  0  0  0  0
 20 98  1  0  0  0  0
 21 40  1  0  0  0  0
 21 86  1  0  0  0  0
 21 91  2  0  0  0  0
 22 41  1  0  0  0  0
 22 87  1  0  0  0  0
 22 92  2  0  0  0  0
 23 75  1  0  0  0  0
 23 89  1  0  0  0  0
 23 93  2  0  0  0  0
 24 25  1  0  0  0  0
 24 26  1  0  0  0  0
 24 30  1  0  0  0  0
 24 40  1  0  0  0  0
 27 28  1  0  0  0  0
 27 29  1  0  0  0  0
 27 36  1  0  0  0  0
 27 38  1  0  0  0  0
 30 31  1  0  0  0  0
 30 32  1  0  0  0  0
 30 86  1  0  0  0  0
 33 34  1  0  0  0  0
 33 35  1  0  0  0  0
 33 36  1  0  0  0  0
 33 83  1  0  0  0  0
 36 37  1  0  0  0  0
 36 96  1  0  0  0  0
 38 39  1  0  0  0  0
 38 77  1  0  0  0  0
 38 83  1  0  0  0  0
 40 63  1  0  0  0  0
 40 87  1  0  0  0  0
 41 42  1  0  0  0  0
 41 43  1  0  0  0  0
 41 44  1  0  0  0  0
 45 46  1  0  0  0  0
 45 47  1  0  0  0  0
 45 48  1  0  0  0  0
 45 66  1  0  0  0  0
 49 50  1  0  0  0  0
 49 51  1  0  0  0  0
 49 52  1  0  0  0  0
 49 79  1  0  0  0  0
 53 54  1  0  0  0  0
 53 55  1  0  0  0  0
 53 56  1  0  0  0  0
 53 79  1  0  0  0  0
 57 58  1  0  0  0  0
 57 59  1  0  0  0  0
 57 69  1  0  0  0  0
 60 61  1  0  0  0  0
 60 62  1  0  0  0  0
 60 81  1  0  0  0  0
 63 64  1  0  0  0  0
 63 65  1  0  0  0  0
 63 79  1  0  0  0  0
 66 67  1  0  0  0  0
 66 68  1  0  0  0  0
 66 72  1  0  0  0  0
 69 70  1  0  0  0  0
 69 71  1  0  0  0  0
 69 75  1  0  0  0  0
 72 73  1  0  0  0  0
 72 74  1  0  0  0  0
 72 96  1  0  0  0  0
 75 76  1  0  0  0  0
 75 86  1  0  0  0  0
 77 78  1  0  0  0  0
 77 81  1  0  0  0  0
 77 94  1  0  0  0  0
 79 80  1  0  0  0  0
 81 82  1  0  0  0  0
 81 89  1  0  0  0  0
 83 84  1  0  0  0  0
 83 85  1  0  0  0  0
 87 88  1  0  0  0  0
 89 90  1  0  0  0  0
 94 95  1  0  0  0  0
M  CHG  1  83   1
M  END
>  <PARENT_CMPD_ID>
3R2F

>  <STANDARD_TYPE>
IC50

>  <RELATION>
=

>  <STANDARD_VALUE>
0.0014

>  <STANDARD_UNITS>
uM

>  <COMPOUND_KEY>
28a

>  <PUBMED_ID>
21782431

>  <JOURNAL>
Bioorg.Med.Chem.Lett.

>  <YEAR>
2011

>  <VOLUME>
21

>  <FIRST_PAGE>
6916

>  <Company>
BMS

>  <Resolution>
2.53

>  <idx>
2

>  <Model>
Train

>  <target>
8.8538723

>  <des_pred_mlr>
7.2181201

>  <RF_Canvas>
8.335454

>  <DNN_Canvas>
8.3166742

>  <pred_CoMFA>
9.3477001

>  <pred_COMSIA>
8.9133997

>  <pred_abm5>
9.5012045

>  <pred_ff8>
8.1605196

>  <pred_gau6>
9.1014662

>  <CID>
BACE_2

>  <active>
1

>  <des_class_bayes>
1

>  <maacs_class_bayes>
1

>  <radial_class_bayes>
1

>  <dend_class_bayes>
1

>  <molprint_class_bayes>
1

>  <RF_canvas>
1

>  <DNN_canvas>
1

$$$$
2WF1_3669
  MOE2015           3D

 81 85  0  0  1  0  0  0  0  0999 V2000
   29.6810   10.9160   21.5680 C   0  0  0  0  0  0  0  0  0  0  0  0
   29.3620   12.2720   20.9270 C   0  0  0  0  0  0  0  0  0  0  0  0
   29.1370   13.3370   21.9950 C   0  0  0  0  0  0  0  0  0  0  0  0
   30.0800   14.2710   22.4330 C   0  0  0  0  0  0  0  0  0  0  0  0
   29.5490   15.0800   23.3920 N   0  0  0  0  0  0  0  0  0  0  0  0
   30.2420   16.2110   24.0890 C   0  0  0  0  0  0  0  0  0  0  0  0
   30.2510   16.3400   25.6300 C   0  0  0  0  0  0  0  0  0  0  0  0
   28.7120   15.9630   26.4430 S   0  0  0  0  0  0  0  0  0  0  0  0
   28.7290   14.5660   26.7530 O   0  0  0  0  0  0  0  0  0  0  0  0
   28.5270   16.8820   27.5370 O   0  0  0  0  0  0  0  0  0  0  0  0
   27.4890   16.2560   25.3470 N   0  0  0  0  0  0  0  0  0  0  0  0
   26.2890   16.9090   25.9340 C   0  0  0  0  0  0  0  0  0  0  0  0
   27.2160   15.1840   24.4960 C   0  0  0  0  0  0  0  0  0  0  0  0
   25.9030   14.5670   24.4760 C   0  0  0  0  0  0  0  0  0  0  0  0
   25.6240   13.4760   23.5870 C   0  0  0  0  0  0  0  0  0  0  0  0
   26.6640   13.0090   22.7290 C   0  0  0  0  0  0  0  0  0  0  0  0
   27.9270   13.5960   22.7440 C   0  0  0  0  0  0  0  0  0  0  0  0
   28.2100   14.6980   23.6240 C   0  0  0  0  0  0  0  0  0  0  0  0
   24.2980   12.8230   23.4680 C   0  0  0  0  0  0  0  0  0  0  0  0
   23.2460   13.4590   23.5400 O   0  0  0  0  0  0  0  0  0  0  0  0
   24.2860   11.4850   23.2040 N   0  0  0  0  0  0  0  0  0  0  0  0
   23.0330   10.7350   22.9710 C   0  0  3  0  0  0  0  0  0  0  0  0
   23.3170    9.8300   21.7260 C   0  0  0  0  0  0  0  0  0  0  0  0
   24.2410   10.4380   20.6800 C   0  0  0  0  0  0  0  0  0  0  0  0
   25.4570    9.7870   20.3210 C   0  0  0  0  0  0  0  0  0  0  0  0
   26.3230   10.3560   19.3510 C   0  0  0  0  0  0  0  0  0  0  0  0
   25.9860   11.5820   18.7310 C   0  0  0  0  0  0  0  0  0  0  0  0
   24.7800   12.2410   19.0790 C   0  0  0  0  0  0  0  0  0  0  0  0
   23.9140   11.6730   20.0430 C   0  0  0  0  0  0  0  0  0  0  0  0
   16.4310   10.6590   23.9700 O   0  0  0  0  0  0  0  0  0  0  0  0
   22.5520    9.9890   24.2360 C   0  0  3  0  0  0  0  0  0  0  0  0
   16.1840    9.2840   24.2260 C   0  0  0  0  0  0  0  0  0  0  0  0
   21.4560    9.1720   23.8620 O   0  0  0  0  0  0  0  0  0  0  0  0
   22.0980   10.8770   25.4020 C   0  0  0  0  0  0  0  0  0  0  0  0
   21.2280   10.1230   26.3220 N   0  3  0  0  0  0  0  0  0  0  0  0
   20.3510   10.9550   27.1670 C   0  0  0  0  0  0  0  0  0  0  0  0
   19.2230   11.5840   26.3790 C   0  0  0  0  0  0  0  0  0  0  0  0
   18.3870   10.7790   25.5650 C   0  0  0  0  0  0  0  0  0  0  0  0
   17.3160   11.3540   24.8100 C   0  0  0  0  0  0  0  0  0  0  0  0
   17.1080   12.7530   24.8930 C   0  0  0  0  0  0  0  0  0  0  0  0
   17.9360   13.5620   25.7020 C   0  0  0  0  0  0  0  0  0  0  0  0
   18.9900   12.9810   26.4430 C   0  0  0  0  0  0  0  0  0  0  0  0
   29.8370   10.1730   20.7860 H   0  0  0  0  0  0  0  0  0  0  0  0
   28.8480   10.6080   22.2010 H   0  0  0  0  0  0  0  0  0  0  0  0
   30.5840   11.0030   22.1720 H   0  0  0  0  0  0  0  0  0  0  0  0
   28.4610   12.1780   20.3210 H   0  0  0  0  0  0  0  0  0  0  0  0
   30.1960   12.5730   20.2930 H   0  0  0  0  0  0  0  0  0  0  0  0
   31.0920   14.3420   22.0620 H   0  0  0  0  0  0  0  0  0  0  0  0
   29.7900   17.1270   23.7090 H   0  0  0  0  0  0  0  0  0  0  0  0
   31.2860   16.1660   23.7800 H   0  0  0  0  0  0  0  0  0  0  0  0
   30.5190   17.3670   25.8790 H   0  0  0  0  0  0  0  0  0  0  0  0
   31.0110   15.6620   26.0190 H   0  0  0  0  0  0  0  0  0  0  0  0
   26.6010   17.7290   26.5800 H   0  0  0  0  0  0  0  0  0  0  0  0
   25.7280   16.1800   26.5180 H   0  0  0  0  0  0  0  0  0  0  0  0
   25.6580   17.2960   25.1340 H   0  0  0  0  0  0  0  0  0  0  0  0
   25.1300   14.9320   25.1360 H   0  0  0  0  0  0  0  0  0  0  0  0
   26.4690   12.1870   22.0570 H   0  0  0  0  0  0  0  0  0  0  0  0
   25.1650   10.9880   23.1660 H   0  0  0  0  0  0  0  0  0  0  0  0
   22.1870   11.3880   22.7580 H   0  0  0  0  0  0  0  0  0  0  0  0
   22.3640    9.6080   21.2460 H   0  0  0  0  0  0  0  0  0  0  0  0
   23.7700    8.9040   22.0790 H   0  0  0  0  0  0  0  0  0  0  0  0
   25.7220    8.8520   20.7920 H   0  0  0  0  0  0  0  0  0  0  0  0
   27.2410    9.8520   19.0860 H   0  0  0  0  0  0  0  0  0  0  0  0
   26.6460   12.0150   17.9940 H   0  0  0  0  0  0  0  0  0  0  0  0
   24.5220   13.1780   18.6080 H   0  0  0  0  0  0  0  0  0  0  0  0
   22.9950   12.1790   20.3000 H   0  0  0  0  0  0  0  0  0  0  0  0
   23.4160    9.4360   24.6040 H   0  0  0  0  0  0  0  0  0  0  0  0
   15.4800    8.8980   23.4890 H   0  0  0  0  0  0  0  0  0  0  0  0
   15.7630    9.1700   25.2250 H   0  0  0  0  0  0  0  0  0  0  0  0
   17.1200    8.7290   24.1610 H   0  0  0  0  0  0  0  0  0  0  0  0
   20.7540    9.7510   23.5550 H   0  0  0  0  0  0  0  0  0  0  0  0
   21.5470   11.7310   25.0080 H   0  0  0  0  0  0  0  0  0  0  0  0
   22.9740   11.2290   25.9460 H   0  0  0  0  0  0  0  0  0  0  0  0
   21.8170    9.5710   26.9290 H   0  0  0  0  0  0  0  0  0  0  0  0
   20.6440    9.5110   25.7710 H   0  0  0  0  0  0  0  0  0  0  0  0
   20.9480   11.7480   27.6180 H   0  0  0  0  0  0  0  0  0  0  0  0
   19.9250   10.3300   27.9520 H   0  0  0  0  0  0  0  0  0  0  0  0
   18.5610    9.7140   25.5140 H   0  0  0  0  0  0  0  0  0  0  0  0
   16.3060   13.2070   24.3300 H   0  0  0  0  0  0  0  0  0  0  0  0
   17.7630   14.6270   25.7550 H   0  0  0  0  0  0  0  0  0  0  0  0
   19.6200   13.6040   27.0600 H   0  0  0  0  0  0  0  0  0  0  0  0
  1  2  1  0  0  0  0
  1 43  1  0  0  0  0
  1 44  1  0  0  0  0
  1 45  1  0  0  0  0
  2  3  1  0  0  0  0
  2 46  1  0  0  0  0
  2 47  1  0  0  0  0
  3  4  2  0  0  0  0
  3 17  1  0  0  0  0
  4  5  1  0  0  0  0
  4 48  1  0  0  0  0
  5  6  1  0  0  0  0
  5 18  1  0  0  0  0
  6  7  1  0  0  0  0
  6 49  1  0  0  0  0
  6 50  1  0  0  0  0
  7  8  1  0  0  0  0
  7 51  1  0  0  0  0
  7 52  1  0  0  0  0
  8  9  2  0  0  0  0
  8 10  2  0  0  0  0
  8 11  1  0  0  0  0
 11 12  1  0  0  0  0
 11 13  1  0  0  0  0
 12 53  1  0  0  0  0
 12 54  1  0  0  0  0
 12 55  1  0  0  0  0
 13 14  1  0  0  0  0
 13 18  2  0  0  0  0
 14 15  2  0  0  0  0
 14 56  1  0  0  0  0
 15 16  1  0  0  0  0
 15 19  1  0  0  0  0
 16 17  2  0  0  0  0
 16 57  1  0  0  0  0
 17 18  1  0  0  0  0
 19 20  2  0  0  0  0
 19 21  1  0  0  0  0
 21 22  1  0  0  0  0
 21 58  1  0  0  0  0
 22 23  1  0  0  0  0
 22 31  1  0  0  0  0
 22 59  1  0  0  0  0
 23 24  1  0  0  0  0
 23 60  1  0  0  0  0
 23 61  1  0  0  0  0
 24 25  1  0  0  0  0
 24 29  2  0  0  0  0
 25 26  2  0  0  0  0
 25 62  1  0  0  0  0
 26 27  1  0  0  0  0
 26 63  1  0  0  0  0
 27 28  2  0  0  0  0
 27 64  1  0  0  0  0
 28 29  1  0  0  0  0
 28 65  1  0  0  0  0
 29 66  1  0  0  0  0
 30 32  1  0  0  0  0
 30 39  1  0  0  0  0
 31 33  1  0  0  0  0
 31 34  1  0  0  0  0
 31 67  1  0  0  0  0
 32 68  1  0  0  0  0
 32 69  1  0  0  0  0
 32 70  1  0  0  0  0
 33 71  1  0  0  0  0
 34 35  1  0  0  0  0
 34 72  1  0  0  0  0
 34 73  1  0  0  0  0
 35 36  1  0  0  0  0
 35 74  1  0  0  0  0
 35 75  1  0  0  0  0
 36 37  1  0  0  0  0
 36 76  1  0  0  0  0
 36 77  1  0  0  0  0
 37 38  1  0  0  0  0
 37 42  2  0  0  0  0
 38 39  2  0  0  0  0
 38 78  1  0  0  0  0
 39 40  1  0  0  0  0
 40 41  2  0  0  0  0
 40 79  1  0  0  0  0
 41 42  1  0  0  0  0
 41 80  1  0  0  0  0
 42 81  1  0  0  0  0
M  CHG  1  35   1
M  END
>  <PARENT_CMPD_ID>
2WF1

>  <STANDARD_TYPE>
IC50

>  <RELATION>
=

>  <STANDARD_VALUE>
0.0020000001

>  <STANDARD_UNITS>
uM

>  <COMPOUND_KEY>
9

>  <PUBMED_ID>
19477642

>  <JOURNAL>
Bioorg.Med.Chem.Lett.

>  <YEAR>
2009

>  <VOLUME>
19

>  <FIRST_PAGE>
3669

>  <Company>
GSK

>  <Resolution>
1.6

>  <idx>
3

>  <Model>
Train

>  <target>
8.6989698

>  <des_pred_mlr>
7.2193699

>  <RF_Canvas>
8.3353529

>  <DNN_Canvas>
8.0773106

>  <pred_CoMFA>
8.1834002

>  <pred_COMSIA>
7.8133001

>  <pred_abm5>
8.2506475

>  <pred_ff8>
8.4972591

>  <pred_gau6>
8.2214279

>  <CID>
BACE_3

>  <active>
1

>  <des_class_bayes>
1

>  <maacs_class_bayes>
1

>  <radial_class_bayes>
1

>  <dend_class_bayes>
1

>  <molprint_class_bayes>
1

>  <RF_canvas>
1

>  <DNN_canvas>
1

$$$$
4D89_3364
  MOE2015           3D

 79 81  0  0  1  0  0  0  0  0999 V2000
   29.9730   10.2900   19.6000 F   0  0  0  0  0  0  0  0  0  0  0  0
   29.2990   10.2500   20.7780 C   0  0  0  0  0  0  0  0  0  0  0  0
   28.4480    9.1930   20.7290 F   0  0  0  0  0  0  0  0  0  0  0  0
   30.1580   10.0720   21.8190 F   0  0  0  0  0  0  0  0  0  0  0  0
   28.4790   11.5550   20.9300 C   0  0  3  0  0  0  0  0  0  0  0  0
   27.9270   11.5760   21.8700 H   0  0  0  0  0  0  0  0  0  0  0  0
   27.6280   11.5710   19.7620 O   0  0  0  0  0  0  0  0  0  0  0  0
   26.2340   11.5290   19.8790 C   0  0  0  0  0  0  0  0  0  0  0  0
   25.4700   12.2930   18.9670 C   0  0  0  0  0  0  0  0  0  0  0  0
   24.0580   12.2860   19.0560 C   0  0  0  0  0  0  0  0  0  0  0  0
   23.4050   11.5150   20.0480 C   0  0  0  0  0  0  0  0  0  0  0  0
   22.3270   11.5120   20.1070 H   0  0  0  0  0  0  0  0  0  0  0  0
   24.1700   10.7460   20.9650 C   0  0  0  0  0  0  0  0  0  0  0  0
   25.5810   10.7570   20.8720 C   0  0  0  0  0  0  0  0  0  0  0  0
   26.1670   10.1710   21.5650 H   0  0  0  0  0  0  0  0  0  0  0  0
   23.5070    9.9080   22.0720 C   0  0  0  0  0  0  0  0  0  0  0  0
   24.2490    9.2230   22.4830 H   0  0  0  0  0  0  0  0  0  0  0  0
   22.6880    9.3370   21.6340 H   0  0  0  0  0  0  0  0  0  0  0  0
   22.9380   10.7900   23.2380 C   0  0  3  0  0  0  0  0  0  0  0  0
   22.1470   11.3770   22.7720 H   0  0  0  0  0  0  0  0  0  0  0  0
   22.2640    9.9820   24.3930 C   0  0  3  0  0  0  0  0  0  0  0  0
   23.0830    9.4320   24.8570 H   0  0  0  0  0  0  0  0  0  0  0  0
   21.5410   10.9040   25.4290 C   0  0  3  0  0  0  0  0  0  0  0  0
   20.8050   11.4470   24.8360 H   0  0  0  0  0  0  0  0  0  0  0  0
   22.4460   12.0040   26.0700 C   0  0  0  0  0  0  0  0  0  0  0  0
   23.2240   11.5250   26.6640 H   0  0  0  0  0  0  0  0  0  0  0  0
   21.8360   12.6380   26.7130 H   0  0  0  0  0  0  0  0  0  0  0  0
   23.2140   13.0180   24.7990 S   0  0  0  0  0  0  0  0  0  0  0  0
   24.0250   11.7520   23.8210 C   0  0  0  0  0  0  0  0  0  0  0  0
   24.5770   12.2180   23.0050 H   0  0  0  0  0  0  0  0  0  0  0  0
   24.7130   11.1880   24.4500 H   0  0  0  0  0  0  0  0  0  0  0  0
   24.2280   13.8410   25.4400 O   0  0  0  0  0  0  0  0  0  0  0  0
   22.1920   13.6810   24.0160 O   0  0  0  0  0  0  0  0  0  0  0  0
   20.8140   10.1230   26.4720 N   0  3  0  0  0  0  0  0  0  0  0  0
   21.5210    9.7110   27.0640 H   0  0  0  0  0  0  0  0  0  0  0  0
   20.3160    9.3920   25.9850 H   0  0  0  0  0  0  0  0  0  0  0  0
   19.8260   10.7700   27.3840 C   0  0  0  0  0  0  0  0  0  0  0  0
   20.3430   11.4890   28.0190 H   0  0  0  0  0  0  0  0  0  0  0  0
   19.3590   10.0060   28.0060 H   0  0  0  0  0  0  0  0  0  0  0  0
   18.7370   11.5000   26.5780 C   0  0  0  0  0  0  0  0  0  0  0  0
   17.8240   10.7330   25.8160 C   0  0  0  0  0  0  0  0  0  0  0  0
   17.9150    9.6570   25.8270 H   0  0  0  0  0  0  0  0  0  0  0  0
   16.7880   11.3250   25.0330 C   0  0  0  0  0  0  0  0  0  0  0  0
   16.7120   12.7490   25.0550 C   0  0  0  0  0  0  0  0  0  0  0  0
   15.9430   13.2410   24.4780 H   0  0  0  0  0  0  0  0  0  0  0  0
   17.6130   13.5390   25.8100 C   0  0  0  0  0  0  0  0  0  0  0  0
   17.5260   14.6150   25.8030 H   0  0  0  0  0  0  0  0  0  0  0  0
   18.6270   12.9140   26.5730 C   0  0  0  0  0  0  0  0  0  0  0  0
   19.3160   13.5120   27.1510 H   0  0  0  0  0  0  0  0  0  0  0  0
   15.8000   10.4310   24.1990 C   0  0  0  0  0  0  0  0  0  0  0  0
   15.2020    9.3340   25.1280 C   0  0  0  0  0  0  0  0  0  0  0  0
   14.6850    9.8070   25.9630 H   0  0  0  0  0  0  0  0  0  0  0  0
   16.0050    8.7030   25.5080 H   0  0  0  0  0  0  0  0  0  0  0  0
   14.4970    8.7240   24.5630 H   0  0  0  0  0  0  0  0  0  0  0  0
   14.5960   11.1980   23.5560 C   0  0  0  0  0  0  0  0  0  0  0  0
   14.0310   11.7070   24.3370 H   0  0  0  0  0  0  0  0  0  0  0  0
   13.9470   10.4890   23.0410 H   0  0  0  0  0  0  0  0  0  0  0  0
   14.9720   11.9310   22.8420 H   0  0  0  0  0  0  0  0  0  0  0  0
   16.5400    9.7400   23.0030 C   0  0  0  0  0  0  0  0  0  0  0  0
   17.3980    9.1820   23.3800 H   0  0  0  0  0  0  0  0  0  0  0  0
   16.8810   10.4990   22.2990 H   0  0  0  0  0  0  0  0  0  0  0  0
   15.8560    9.0580   22.4980 H   0  0  0  0  0  0  0  0  0  0  0  0
   21.2330    9.1130   23.8940 O   0  0  0  0  0  0  0  0  0  0  0  0
   20.5520    9.6650   23.5030 H   0  0  0  0  0  0  0  0  0  0  0  0
   23.3470   13.0150   18.2030 F   0  0  0  0  0  0  0  0  0  0  0  0
   26.1000   13.0280   18.0150 N   0  0  0  0  0  0  0  0  0  0  0  0
   25.5600   13.5770   17.3610 H   0  0  0  0  0  0  0  0  0  0  0  0
   27.1090   13.0260   17.9600 H   0  0  0  0  0  0  0  0  0  0  0  0
   29.3900   12.8190   20.9480 C   0  0  0  0  0  0  0  0  0  0  0  0
   29.6890   13.0600   19.9280 H   0  0  0  0  0  0  0  0  0  0  0  0
   30.2770   12.6140   21.5480 H   0  0  0  0  0  0  0  0  0  0  0  0
   28.6810   13.9450   21.5150 O   0  0  0  0  0  0  0  0  0  0  0  0
   28.1590   14.8690   20.5280 C   0  0  0  0  0  0  0  0  0  0  0  0
   27.5650   14.3210   19.7960 H   0  0  0  0  0  0  0  0  0  0  0  0
   28.9870   15.3670   20.0240 H   0  0  0  0  0  0  0  0  0  0  0  0
   27.2670   15.9290   21.2290 C   0  0  0  0  0  0  0  0  0  0  0  0
   26.4390   15.4310   21.7330 H   0  0  0  0  0  0  0  0  0  0  0  0
   26.8750   16.6230   20.4860 H   0  0  0  0  0  0  0  0  0  0  0  0
   27.8610   16.4770   21.9600 H   0  0  0  0  0  0  0  0  0  0  0  0
  1  2  1  0  0  0  0
  2  3  1  0  0  0  0
  2  4  1  0  0  0  0
  2  5  1  0  0  0  0
  5  6  1  0  0  0  0
  5  7  1  0  0  0  0
  5 69  1  0  0  0  0
  7  8  1  0  0  0  0
  8  9  1  0  0  0  0
  8 14  2  0  0  0  0
  9 10  2  0  0  0  0
  9 66  1  0  0  0  0
 10 11  1  0  0  0  0
 10 65  1  0  0  0  0
 11 12  1  0  0  0  0
 11 13  2  0  0  0  0
 13 14  1  0  0  0  0
 13 16  1  0  0  0  0
 14 15  1  0  0  0  0
 16 17  1  0  0  0  0
 16 18  1  0  0  0  0
 16 19  1  0  0  0  0
 19 20  1  0  0  0  0
 19 21  1  0  0  0  0
 19 29  1  0  0  0  0
 21 22  1  0  0  0  0
 21 23  1  0  0  0  0
 21 63  1  0  0  0  0
 23 24  1  0  0  0  0
 23 25  1  0  0  0  0
 23 34  1  0  0  0  0
 25 26  1  0  0  0  0
 25 27  1  0  0  0  0
 25 28  1  0  0  0  0
 28 29  1  0  0  0  0
 28 32  2  0  0  0  0
 28 33  2  0  0  0  0
 29 30  1  0  0  0  0
 29 31  1  0  0  0  0
 34 35  1  0  0  0  0
 34 36  1  0  0  0  0
 34 37  1  0  0  0  0
 37 38  1  0  0  0  0
 37 39  1  0  0  0  0
 37 40  1  0  0  0  0
 40 41  1  0  0  0  0
 40 48  2  0  0  0  0
 41 42  1  0  0  0  0
 41 43  2  0  0  0  0
 43 44  1  0  0  0  0
 43 50  1  0  0  0  0
 44 45  1  0  0  0  0
 44 46  2  0  0  0  0
 46 47  1  0  0  0  0
 46 48  1  0  0  0  0
 48 49  1  0  0  0  0
 50 51  1  0  0  0  0
 50 55  1  0  0  0  0
 50 59  1  0  0  0  0
 51 52  1  0  0  0  0
 51 53  1  0  0  0  0
 51 54  1  0  0  0  0
 55 56  1  0  0  0  0
 55 57  1  0  0  0  0
 55 58  1  0  0  0  0
 59 60  1  0  0  0  0
 59 61  1  0  0  0  0
 59 62  1  0  0  0  0
 63 64  1  0  0  0  0
 66 67  1  0  0  0  0
 66 68  1  0  0  0  0
 69 70  1  0  0  0  0
 69 71  1  0  0  0  0
 69 72  1  0  0  0  0
 72 73  1  0  0  0  0
 73 74  1  0  0  0  0
 73 75  1  0  0  0  0
 73 76  1  0  0  0  0
 76 77  1  0  0  0  0
 76 78  1  0  0  0  0
 76 79  1  0  0  0  0
M  CHG  1  34   1
M  END
>  <PARENT_CMPD_ID>
4D89

>  <STANDARD_TYPE>
IC50

>  <RELATION>
=

>  <STANDARD_VALUE>
0.0020000001

>  <STANDARD_UNITS>
uM

>  <COMPOUND_KEY>
60n

>  <PUBMED_ID>
22380629

>  <JOURNAL>
J.Med.Chem.

>  <YEAR>
2012

>  <VOLUME>
55

>  <FIRST_PAGE>
3364

>  <Company>
Novartis

>  <Resolution>
1.65

>  <idx>
4

>  <Model>
Train

>  <target>
8.6989698

>  <des_pred_mlr>
7.4774499

>  <RF_Canvas>
8.4375935

>  <DNN_Canvas>
7.9702997

>  <pred_CoMFA>
8.3353996

>  <pred_COMSIA>
7.6975002

>  <pred_abm5>
8.2450237

>  <pred_ff8>
8.0958452

>  <pred_gau6>
8.1047993

>  <CID>
BACE_4

>  <active>
1

>  <des_class_bayes>
1

>  <maacs_class_bayes>
1

>  <radial_class_bayes>
1

>  <dend_class_bayes>
1

>  <molprint_class_bayes>
1

>  <RF_canvas>
1

>  <DNN_canvas>
1

$$$$
2VNN_3313
  MOE2015           3D

 80 84  0  0  1  0  0  0  0  0999 V2000
   29.3910   10.9800   21.4340 C   0  0  0  0  0  0  0  0  0  0  0  0
   29.4000   12.4110   20.8650 C   0  0  0  0  0  0  0  0  0  0  0  0
   29.1770   13.4430   21.9930 C   0  0  0  0  0  0  0  0  0  0  0  0
   30.1500   14.4090   22.4700 C   0  0  0  0  0  0  0  0  0  0  0  0
   29.5100   15.0930   23.5100 N   0  0  0  0  0  0  0  0  0  0  0  0
   30.3290   16.2100   24.1110 C   0  0  0  0  0  0  0  0  0  0  0  0
   30.2120   16.6850   25.5670 C   0  0  0  0  0  0  0  0  0  0  0  0
   28.6650   16.0770   26.3730 S   0  0  0  0  0  0  0  0  0  0  0  0
   28.4150   16.8770   27.6020 O   0  0  0  0  0  0  0  0  0  0  0  0
   28.9900   14.7100   26.7090 O   0  0  0  0  0  0  0  0  0  0  0  0
   27.3590   16.1310   25.5280 N   0  0  0  0  0  0  0  0  0  0  0  0
   26.6370   17.4010   25.3140 C   0  0  0  0  0  0  0  0  0  0  0  0
   27.0250   15.0740   24.5640 C   0  0  0  0  0  0  0  0  0  0  0  0
   25.7700   14.3990   24.5130 C   0  0  0  0  0  0  0  0  0  0  0  0
   25.5970   13.3640   23.5740 C   0  0  0  0  0  0  0  0  0  0  0  0
   26.6540   12.9110   22.6540 C   0  0  0  0  0  0  0  0  0  0  0  0
   27.9510   13.6030   22.7390 C   0  0  0  0  0  0  0  0  0  0  0  0
   28.1270   14.6560   23.6770 C   0  0  0  0  0  0  0  0  0  0  0  0
   24.2280   12.7570   23.5830 C   0  0  0  0  0  0  0  0  0  0  0  0
   23.2660   13.4800   23.4960 O   0  0  0  0  0  0  0  0  0  0  0  0
   24.1930   11.3630   23.2820 N   0  0  0  0  0  0  0  0  0  0  0  0
   22.9790   10.6970   22.8380 C   0  0  3  0  0  0  0  0  0  0  0  0
   23.4480    9.6980   21.7390 C   0  0  0  0  0  0  0  0  0  0  0  0
   24.3590   10.3840   20.6860 C   0  0  0  0  0  0  0  0  0  0  0  0
   24.0140   11.6800   20.1090 C   0  0  0  0  0  0  0  0  0  0  0  0
   24.8880   12.2740   19.1320 C   0  0  0  0  0  0  0  0  0  0  0  0
   26.1080   11.5570   18.7340 C   0  0  0  0  0  0  0  0  0  0  0  0
   26.4550   10.2730   19.3000 C   0  0  0  0  0  0  0  0  0  0  0  0
   25.5730    9.6750   20.2770 C   0  0  0  0  0  0  0  0  0  0  0  0
   22.4020    9.9530   24.0600 C   0  0  3  0  0  0  0  0  0  0  0  0
   21.2910    9.1520   23.6100 O   0  0  0  0  0  0  0  0  0  0  0  0
   21.8330   10.9600   25.1020 C   0  0  0  0  0  0  0  0  0  0  0  0
   21.2000   10.1680   26.2020 N   0  3  0  0  0  0  0  0  0  0  0  0
   20.2210   10.9540   26.9990 C   0  0  0  0  0  0  0  0  0  0  0  0
   19.0880   11.5450   26.1240 C   0  0  0  0  0  0  0  0  0  0  0  0
   18.9130   12.9900   26.0170 C   0  0  0  0  0  0  0  0  0  0  0  0
   17.8450   13.5300   25.1940 C   0  0  0  0  0  0  0  0  0  0  0  0
   16.9370   12.6350   24.4910 C   0  0  0  0  0  0  0  0  0  0  0  0
   17.1280   11.2040   24.5930 C   0  0  0  0  0  0  0  0  0  0  0  0
   18.1910   10.6530   25.4100 C   0  0  0  0  0  0  0  0  0  0  0  0
   16.2050   10.2340   23.8580 C   0  0  0  0  0  0  0  0  0  0  0  0
   15.7350    9.2780   24.6870 F   0  0  0  0  0  0  0  0  0  0  0  0
   16.9110    9.6170   22.8920 F   0  0  0  0  0  0  0  0  0  0  0  0
   15.1620   10.8910   23.3120 F   0  0  0  0  0  0  0  0  0  0  0  0
   29.5490   10.2660   20.6250 H   0  0  0  0  0  0  0  0  0  0  0  0
   28.4300   10.7840   21.9090 H   0  0  0  0  0  0  0  0  0  0  0  0
   30.1880   10.8770   22.1710 H   0  0  0  0  0  0  0  0  0  0  0  0
   28.6040   12.5090   20.1270 H   0  0  0  0  0  0  0  0  0  0  0  0
   30.3620   12.6020   20.3890 H   0  0  0  0  0  0  0  0  0  0  0  0
   31.1530   14.5660   22.1010 H   0  0  0  0  0  0  0  0  0  0  0  0
   30.1230   17.0880   23.4980 H   0  0  0  0  0  0  0  0  0  0  0  0
   31.3700   15.9130   23.9820 H   0  0  0  0  0  0  0  0  0  0  0  0
   30.2120   17.7750   25.5820 H   0  0  0  0  0  0  0  0  0  0  0  0
   31.0700   16.3140   26.1280 H   0  0  0  0  0  0  0  0  0  0  0  0
   26.9430   18.1250   26.0690 H   0  0  0  0  0  0  0  0  0  0  0  0
   25.5640   17.2270   25.3920 H   0  0  0  0  0  0  0  0  0  0  0  0
   26.8710   17.7890   24.3230 H   0  0  0  0  0  0  0  0  0  0  0  0
   24.9680   14.6760   25.1810 H   0  0  0  0  0  0  0  0  0  0  0  0
   26.4860   12.1090   21.9500 H   0  0  0  0  0  0  0  0  0  0  0  0
   25.0390   10.8210   23.3810 H   0  0  0  0  0  0  0  0  0  0  0  0
   22.2140   11.3660   22.4440 H   0  0  0  0  0  0  0  0  0  0  0  0
   22.5710    9.2910   21.2350 H   0  0  0  0  0  0  0  0  0  0  0  0
   24.0040    8.8880   22.2120 H   0  0  0  0  0  0  0  0  0  0  0  0
   23.1110   12.1880   20.4130 H   0  0  0  0  0  0  0  0  0  0  0  0
   24.6510   13.2340   18.6970 H   0  0  0  0  0  0  0  0  0  0  0  0
   26.7630   12.0020   17.9990 H   0  0  0  0  0  0  0  0  0  0  0  0
   27.3600    9.7680   18.9970 H   0  0  0  0  0  0  0  0  0  0  0  0
   25.8080    8.7110   20.7030 H   0  0  0  0  0  0  0  0  0  0  0  0
   23.1940    9.3570   24.5120 H   0  0  0  0  0  0  0  0  0  0  0  0
   20.6410    9.7460   23.2270 H   0  0  0  0  0  0  0  0  0  0  0  0
   21.0880   11.6010   24.6300 H   0  0  0  0  0  0  0  0  0  0  0  0
   22.6390   11.5740   25.5030 H   0  0  0  0  0  0  0  0  0  0  0  0
   21.9270    9.8390   26.8210 H   0  0  0  0  0  0  0  0  0  0  0  0
   20.7220    9.3770   25.7940 H   0  0  0  0  0  0  0  0  0  0  0  0
   20.7470   11.7720   27.4910 H   0  0  0  0  0  0  0  0  0  0  0  0
   19.7780   10.3020   27.7520 H   0  0  0  0  0  0  0  0  0  0  0  0
   19.5760   13.6560   26.5490 H   0  0  0  0  0  0  0  0  0  0  0  0
   17.7240   14.5990   25.1030 H   0  0  0  0  0  0  0  0  0  0  0  0
   16.1280   13.0360   23.8980 H   0  0  0  0  0  0  0  0  0  0  0  0
   18.3160    9.5830   25.4880 H   0  0  0  0  0  0  0  0  0  0  0  0
  1  2  1  0  0  0  0
  1 45  1  0  0  0  0
  1 46  1  0  0  0  0
  1 47  1  0  0  0  0
  2  3  1  0  0  0  0
  2 48  1  0  0  0  0
  2 49  1  0  0  0  0
  3  4  2  0  0  0  0
  3 17  1  0  0  0  0
  4  5  1  0  0  0  0
  4 50  1  0  0  0  0
  5  6  1  0  0  0  0
  5 18  1  0  0  0  0
  6  7  1  0  0  0  0
  6 51  1  0  0  0  0
  6 52  1  0  0  0  0
  7  8  1  0  0  0  0
  7 53  1  0  0  0  0
  7 54  1  0  0  0  0
  8  9  2  0  0  0  0
  8 10  2  0  0  0  0
  8 11  1  0  0  0  0
 11 12  1  0  0  0  0
 11 13  1  0  0  0  0
 12 55  1  0  0  0  0
 12 56  1  0  0  0  0
 12 57  1  0  0  0  0
 13 14  1  0  0  0  0
 13 18  2  0  0  0  0
 14 15  2  0  0  0  0
 14 58  1  0  0  0  0
 15 16  1  0  0  0  0
 15 19  1  0  0  0  0
 16 17  2  0  0  0  0
 16 59  1  0  0  0  0
 17 18  1  0  0  0  0
 19 20  2  0  0  0  0
 19 21  1  0  0  0  0
 21 22  1  0  0  0  0
 21 60  1  0  0  0  0
 22 23  1  0  0  0  0
 22 30  1  0  0  0  0
 22 61  1  0  0  0  0
 23 24  1  0  0  0  0
 23 62  1  0  0  0  0
 23 63  1  0  0  0  0
 24 25  1  0  0  0  0
 24 29  2  0  0  0  0
 25 26  2  0  0  0  0
 25 64  1  0  0  0  0
 26 27  1  0  0  0  0
 26 65  1  0  0  0  0
 27 28  2  0  0  0  0
 27 66  1  0  0  0  0
 28 29  1  0  0  0  0
 28 67  1  0  0  0  0
 29 68  1  0  0  0  0
 30 31  1  0  0  0  0
 30 32  1  0  0  0  0
 30 69  1  0  0  0  0
 31 70  1  0  0  0  0
 32 33  1  0  0  0  0
 32 71  1  0  0  0  0
 32 72  1  0  0  0  0
 33 34  1  0  0  0  0
 33 73  1  0  0  0  0
 33 74  1  0  0  0  0
 34 35  1  0  0  0  0
 34 75  1  0  0  0  0
 34 76  1  0  0  0  0
 35 36  1  0  0  0  0
 35 40  2  0  0  0  0
 36 37  2  0  0  0  0
 36 77  1  0  0  0  0
 37 38  1  0  0  0  0
 37 78  1  0  0  0  0
 38 39  2  0  0  0  0
 38 79  1  0  0  0  0
 39 40  1  0  0  0  0
 39 41  1  0  0  0  0
 40 80  1  0  0  0  0
 41 42  1  0  0  0  0
 41 43  1  0  0  0  0
 41 44  1  0  0  0  0
M  CHG  1  33   1
M  END
>  <PARENT_CMPD_ID>
2VNN

>  <STANDARD_TYPE>
IC50

>  <RELATION>
=

>  <STANDARD_VALUE>
0.0020000001

>  <STANDARD_UNITS>
uM

>  <COMPOUND_KEY>
8a

>  <PUBMED_ID>
18457381

>  <JOURNAL>
J.Med.Chem.

>  <YEAR>
2008

>  <VOLUME>
51

>  <FIRST_PAGE>
3313

>  <Company>
GSK

>  <Resolution>
1.87

>  <idx>
5

>  <Model>
Train

>  <target>
8.6989698

>  <des_pred_mlr>
7.3364501

>  <RF_Canvas>
8.4719419

>  <DNN_Canvas>
8.2296219

>  <pred_CoMFA>
8.7063999

>  <pred_COMSIA>
7.9024

>  <pred_abm5>
8.3871098

>  <pred_ff8>
8.4151382

>  <pred_gau6>
8.1303864

>  <CID>
BACE_5

>  <active>
1

>  <des_class_bayes>
1

>  <maacs_class_bayes>
1

>  <radial_class_bayes>
1

>  <dend_class_bayes>
1

>  <molprint_class_bayes>
1

>  <RF_canvas>
1

>  <DNN_canvas>
1

$$$$
4LXA_5300
  MOE2015           3D

 71 73  0  0  1  0  0  0  0  0999 V2000
   27.9310   13.5270   20.9260 F   0  0  0  0  0  0  0  0  0  0  0  0
   28.9130   12.5910   20.8050 C   0  0  0  0  0  0  0  0  0  0  0  0
   29.5960   12.8390   19.6610 F   0  0  0  0  0  0  0  0  0  0  0  0
   29.7460   12.7520   21.8650 F   0  0  0  0  0  0  0  0  0  0  0  0
   28.2790   11.1670   20.7840 C   0  0  0  0  0  0  0  0  0  0  0  0
   27.4450   11.0510   19.6140 O   0  0  0  0  0  0  0  0  0  0  0  0
   26.0560   11.1290   19.7140 C   0  0  0  0  0  0  0  0  0  0  0  0
   25.3550   11.9910   18.8340 C   0  0  0  0  0  0  0  0  0  0  0  0
   23.9410   12.0900   18.9400 C   0  0  0  0  0  0  0  0  0  0  0  0
   23.2430   11.3370   19.9080 C   0  0  0  0  0  0  0  0  0  0  0  0
   23.9480   10.4800   20.7870 C   0  0  0  0  0  0  0  0  0  0  0  0
   25.3520   10.3760   20.6820 C   0  0  0  0  0  0  0  0  0  0  0  0
   23.2250    9.6710   21.8770 C   0  0  0  0  0  0  0  0  0  0  0  0
   22.7740   10.6570   23.0180 C   0  0  3  0  0  0  0  0  0  0  0  0
   22.1320    9.9110   24.2290 C   0  0  3  0  0  0  0  0  0  0  0  0
   21.4980   10.8780   25.2790 C   0  0  3  0  0  0  0  0  0  0  0  0
   22.4700   11.9710   25.8260 C   0  0  0  0  0  0  0  0  0  0  0  0
   23.2130   12.9570   24.5180 S   0  0  0  0  0  0  0  0  0  0  0  0
   23.8950   11.6340   23.5210 C   0  0  0  0  0  0  0  0  0  0  0  0
   22.1050   13.5560   23.6930 O   0  0  0  0  0  0  0  0  0  0  0  0
   20.8400   10.0970   26.3720 N   0  3  0  0  0  0  0  0  0  0  0  0
   19.8750   10.7250   27.3320 C   0  0  0  0  0  0  0  0  0  0  0  0
   18.7550   11.4430   26.5500 C   0  0  0  0  0  0  0  0  0  0  0  0
   17.8170   10.6890   25.8070 C   0  0  0  0  0  0  0  0  0  0  0  0
   16.7640   11.2960   25.0580 C   0  0  0  0  0  0  0  0  0  0  0  0
   16.7030   12.7220   25.0930 C   0  0  0  0  0  0  0  0  0  0  0  0
   17.6310   13.4980   25.8340 C   0  0  0  0  0  0  0  0  0  0  0  0
   18.6580   12.8610   26.5640 C   0  0  0  0  0  0  0  0  0  0  0  0
   15.7600   10.3900   24.2590 C   0  0  0  0  0  0  0  0  0  0  0  0
   15.1460    9.2990   25.1920 C   0  0  0  0  0  0  0  0  0  0  0  0
   14.5380   11.1190   23.6060 C   0  0  0  0  0  0  0  0  0  0  0  0
   16.5020    9.6890   23.0810 C   0  0  0  0  0  0  0  0  0  0  0  0
   21.0980    9.0340   23.7440 O   0  0  0  0  0  0  0  0  0  0  0  0
   23.2530   12.8930   18.1370 F   0  0  0  0  0  0  0  0  0  0  0  0
   26.0330   12.7140   17.9060 N   0  0  0  0  0  0  0  0  0  0  0  0
   29.2700    9.9710   20.7570 C   0  0  0  0  0  0  0  0  0  0  0  0
   30.2180   10.0560   21.7230 F   0  0  0  0  0  0  0  0  0  0  0  0
   28.5820    8.8180   20.9470 F   0  0  0  0  0  0  0  0  0  0  0  0
   29.8480    9.9100   19.5340 F   0  0  0  0  0  0  0  0  0  0  0  0
   27.7390   11.0940   21.7280 H   0  0  0  0  0  0  0  0  0  0  0  0
   22.1680   11.4150   19.9780 H   0  0  0  0  0  0  0  0  0  0  0  0
   25.8920    9.7170   21.3460 H   0  0  0  0  0  0  0  0  0  0  0  0
   23.9010    8.9200   22.2860 H   0  0  0  0  0  0  0  0  0  0  0  0
   22.3510    9.1790   21.4500 H   0  0  0  0  0  0  0  0  0  0  0  0
   22.0160   11.2770   22.5400 H   0  0  0  0  0  0  0  0  0  0  0  0
   22.9330    9.3620   24.7240 H   0  0  0  0  0  0  0  0  0  0  0  0
   20.7360   11.4500   24.7500 H   0  0  0  0  0  0  0  0  0  0  0  0
   23.2650   11.4810   26.3880 H   0  0  0  0  0  0  0  0  0  0  0  0
   21.9130   12.6330   26.4880 H   0  0  0  0  0  0  0  0  0  0  0  0
   24.4020   12.0660   22.6580 H   0  0  0  0  0  0  0  0  0  0  0  0
   24.6120   11.0720   24.1200 H   0  0  0  0  0  0  0  0  0  0  0  0
   21.5870    9.7130   26.9330 H   0  0  0  0  0  0  0  0  0  0  0  0
   20.3390    9.3460   25.9190 H   0  0  0  0  0  0  0  0  0  0  0  0
   20.4020   11.4480   27.9550 H   0  0  0  0  0  0  0  0  0  0  0  0
   19.4370    9.9520   27.9630 H   0  0  0  0  0  0  0  0  0  0  0  0
   17.9010    9.6120   25.8060 H   0  0  0  0  0  0  0  0  0  0  0  0
   15.9260   13.2260   24.5380 H   0  0  0  0  0  0  0  0  0  0  0  0
   17.5520   14.5750   25.8400 H   0  0  0  0  0  0  0  0  0  0  0  0
   19.3660   13.4480   27.1300 H   0  0  0  0  0  0  0  0  0  0  0  0
   14.6250    9.7800   26.0190 H   0  0  0  0  0  0  0  0  0  0  0  0
   15.9420    8.6660   25.5830 H   0  0  0  0  0  0  0  0  0  0  0  0
   14.4430    8.6900   24.6250 H   0  0  0  0  0  0  0  0  0  0  0  0
   13.9680   11.6360   24.3780 H   0  0  0  0  0  0  0  0  0  0  0  0
   13.9000   10.3870   23.1120 H   0  0  0  0  0  0  0  0  0  0  0  0
   14.8960   11.8420   22.8730 H   0  0  0  0  0  0  0  0  0  0  0  0
   17.3720    9.1570   23.4650 H   0  0  0  0  0  0  0  0  0  0  0  0
   16.8240   10.4380   22.3580 H   0  0  0  0  0  0  0  0  0  0  0  0
   15.8280    8.9820   22.5960 H   0  0  0  0  0  0  0  0  0  0  0  0
   20.4300    9.5790   23.3220 H   0  0  0  0  0  0  0  0  0  0  0  0
   25.5330   13.3300   17.2820 H   0  0  0  0  0  0  0  0  0  0  0  0
   27.0380   12.6350   17.8400 H   0  0  0  0  0  0  0  0  0  0  0  0
  1  2  1  0  0  0  0
  2  3  1  0  0  0  0
  2  4  1  0  0  0  0
  2  5  1  0  0  0  0
  5  6  1  0  0  0  0
  5 36  1  0  0  0  0
  5 40  1  0  0  0  0
  6  7  1  0  0  0  0
  7  8  1  0  0  0  0
  7 12  2  0  0  0  0
  8  9  2  0  0  0  0
  8 35  1  0  0  0  0
  9 10  1  0  0  0  0
  9 34  1  0  0  0  0
 10 11  2  0  0  0  0
 10 41  1  0  0  0  0
 11 12  1  0  0  0  0
 11 13  1  0  0  0  0
 12 42  1  0  0  0  0
 13 14  1  0  0  0  0
 13 43  1  0  0  0  0
 13 44  1  0  0  0  0
 14 15  1  0  0  0  0
 14 19  1  0  0  0  0
 14 45  1  0  0  0  0
 15 16  1  0  0  0  0
 15 33  1  0  0  0  0
 15 46  1  0  0  0  0
 16 17  1  0  0  0  0
 16 21  1  0  0  0  0
 16 47  1  0  0  0  0
 17 18  1  0  0  0  0
 17 48  1  0  0  0  0
 17 49  1  0  0  0  0
 18 19  1  0  0  0  0
 18 20  2  0  0  0  0
 19 50  1  0  0  0  0
 19 51  1  0  0  0  0
 21 22  1  0  0  0  0
 21 52  1  0  0  0  0
 21 53  1  0  0  0  0
 22 23  1  0  0  0  0
 22 54  1  0  0  0  0
 22 55  1  0  0  0  0
 23 24  1  0  0  0  0
 23 28  2  0  0  0  0
 24 25  2  0  0  0  0
 24 56  1  0  0  0  0
 25 26  1  0  0  0  0
 25 29  1  0  0  0  0
 26 27  2  0  0  0  0
 26 57  1  0  0  0  0
 27 28  1  0  0  0  0
 27 58  1  0  0  0  0
 28 59  1  0  0  0  0
 29 30  1  0  0  0  0
 29 31  1  0  0  0  0
 29 32  1  0  0  0  0
 30 60  1  0  0  0  0
 30 61  1  0  0  0  0
 30 62  1  0  0  0  0
 31 63  1  0  0  0  0
 31 64  1  0  0  0  0
 31 65  1  0  0  0  0
 32 66  1  0  0  0  0
 32 67  1  0  0  0  0
 32 68  1  0  0  0  0
 33 69  1  0  0  0  0
 35 70  1  0  0  0  0
 35 71  1  0  0  0  0
 36 37  1  0  0  0  0
 36 38  1  0  0  0  0
 36 39  1  0  0  0  0
M  CHG  1  21   1
M  END
>  <PARENT_CMPD_ID>
4LXA

>  <STANDARD_TYPE>
IC50

>  <RELATION>
=

>  <STANDARD_VALUE>
0.0020000001

>  <STANDARD_UNITS>
uM

>  <COMPOUND_KEY>
11a

>  <PUBMED_ID>
23981898

>  <JOURNAL>
Bioorg.Med.Chem.Lett.

>  <YEAR>
2013

>  <VOLUME>
23

>  <FIRST_PAGE>
5300

>  <Company>
Novartis

>  <Resolution>
1.95

>  <idx>
6

>  <Model>
Train

>  <target>
8.6989698

>  <des_pred_mlr>
7.39189

>  <RF_Canvas>
7.8773112

>  <DNN_Canvas>
7.847146

>  <pred_CoMFA>
8.4218998

>  <pred_COMSIA>
7.1989002

>  <pred_abm5>
7.9064631

>  <pred_ff8>
7.9837389

>  <pred_gau6>
7.9209538

>  <CID>
BACE_6

>  <active>
1

>  <des_class_bayes>
1

>  <maacs_class_bayes>
1

>  <radial_class_bayes>
1

>  <dend_class_bayes>
1

>  <molprint_class_bayes>
1

>  <RF_canvas>
1

>  <DNN_canvas>
1

$$$$
2HM1_78
  MOE2015           3D

 88 90  0  0  1  0  0  0  0  0999 V2000
   29.3920   13.1430   22.0640 C   0  0  0  0  0  0  0  0  0  0  0  0
   25.2420   13.6360   23.8580 C   0  0  3  0  0  0  0  0  0  0  0  0
   23.8040   11.6580   23.4320 N   0  0  0  0  0  0  0  0  0  0  0  0
   22.6710   10.7920   23.0620 C   0  0  3  0  0  0  0  0  0  0  0  0
   23.8290   10.7620   20.7510 C   0  0  0  0  0  0  0  0  0  0  0  0
   25.7310   11.3400   19.0800 C   0  0  0  0  0  0  0  0  0  0  0  0
   22.9970   11.9250   20.1350 C   0  0  0  0  0  0  0  0  0  0  0  0
   22.0090   12.1340   20.5170 H   0  0  0  0  0  0  0  0  0  0  0  0
   22.1360    9.9790   24.2430 C   0  0  3  0  0  0  0  0  0  0  0  0
   21.5380   10.8670   25.2160 C   0  0  0  0  0  0  0  0  0  0  0  0
   20.3160   11.2980   27.2430 C   0  0  0  0  0  0  0  0  0  0  0  0
   18.0940   10.7920   25.8000 C   0  0  0  0  0  0  0  0  0  0  0  0
   16.0110   10.3310   24.4350 C   0  0  0  0  0  0  0  0  0  0  0  0
   29.2080    9.5860   20.7500 C   0  0  0  0  0  0  0  0  0  0  0  0
   28.5280    8.5880   21.6780 C   0  0  0  0  0  0  0  0  0  0  0  0
   29.5810   10.8230   21.5650 C   0  0  0  0  0  0  0  0  0  0  0  0
   28.8870   12.1220   21.1070 C   0  0  0  0  0  0  0  0  0  0  0  0
   27.9680   13.7410   23.1200 S   0  0  0  0  0  0  0  0  0  0  0  0
   28.2610   13.3700   24.4760 O   0  0  0  0  0  0  0  0  0  0  0  0
   27.9610   15.1960   22.9890 O   0  0  0  0  0  0  0  0  0  0  0  0
   26.2930   13.0890   22.8660 C   0  0  0  0  0  0  0  0  0  0  0  0
   23.9140   13.0270   23.4730 C   0  0  0  0  0  0  0  0  0  0  0  0
   22.9750   13.8040   23.1860 O   0  0  0  0  0  0  0  0  0  0  0  0
   23.2960    9.8670   21.9340 C   0  0  0  0  0  0  0  0  0  0  0  0
   25.1860   10.5010   20.2000 C   0  0  0  0  0  0  0  0  0  0  0  0
   25.7850    9.7010   20.6090 H   0  0  0  0  0  0  0  0  0  0  0  0
   24.9210   12.4840   18.4710 C   0  0  0  0  0  0  0  0  0  0  0  0
   25.3260   13.0800   17.6670 H   0  0  0  0  0  0  0  0  0  0  0  0
   23.5510   12.7610   19.0150 C   0  0  0  0  0  0  0  0  0  0  0  0
   21.0860    9.1790   23.7510 O   0  0  0  0  0  0  0  0  0  0  0  0
   20.9280   10.2390   26.4500 N   0  3  0  0  0  0  0  0  0  0  0  0
   19.0790   11.8080   26.5170 C   0  0  0  0  0  0  0  0  0  0  0  0
   16.9330   11.3410   25.1050 C   0  0  0  0  0  0  0  0  0  0  0  0
   16.5420   12.7320   24.9760 C   0  0  0  0  0  0  0  0  0  0  0  0
   15.6570   13.0350   24.4360 H   0  0  0  0  0  0  0  0  0  0  0  0
   17.4720   13.7440   25.6600 C   0  0  0  0  0  0  0  0  0  0  0  0
   17.2380   14.7970   25.6030 H   0  0  0  0  0  0  0  0  0  0  0  0
   18.7280   13.2940   26.4240 C   0  0  0  0  0  0  0  0  0  0  0  0
   19.3640   14.0280   26.8960 H   0  0  0  0  0  0  0  0  0  0  0  0
   16.5550    9.8510   23.0950 C   0  0  0  0  0  0  0  0  0  0  0  0
   25.2850   15.1300   23.8450 N   0  0  0  0  0  0  0  0  0  0  0  0
   25.2690   15.9150   25.0130 C   0  0  0  0  0  0  0  0  0  0  0  0
   25.0970   15.4070   26.1280 O   0  0  0  0  0  0  0  0  0  0  0  0
   22.8300   13.7250   18.5190 F   0  0  0  0  0  0  0  0  0  0  0  0
   26.8990   11.0690   18.6490 F   0  0  0  0  0  0  0  0  0  0  0  0
   25.4610   17.4140   24.8920 C   0  0  0  0  0  0  0  0  0  0  0  0
   25.4290   18.1910   26.0350 C   0  0  0  0  0  0  0  0  0  0  0  0
   25.5970   19.5580   25.9330 N   0  0  0  0  0  0  0  0  0  0  0  0
   25.8060   20.2460   24.6950 C   0  0  0  0  0  0  0  0  0  0  0  0
   25.9320   21.3180   24.6640 H   0  0  0  0  0  0  0  0  0  0  0  0
   25.8420   19.4560   23.4970 C   0  0  0  0  0  0  0  0  0  0  0  0
   25.9990   19.9270   22.5380 H   0  0  0  0  0  0  0  0  0  0  0  0
   25.6660   18.0210   23.5860 C   0  0  0  0  0  0  0  0  0  0  0  0
   25.6870   17.4100   22.6950 H   0  0  0  0  0  0  0  0  0  0  0  0
   29.8170   13.9820   21.5130 H   0  0  0  0  0  0  0  0  0  0  0  0
   30.1590   12.7010   22.7000 H   0  0  0  0  0  0  0  0  0  0  0  0
   25.4370   13.3590   24.8940 H   0  0  0  0  0  0  0  0  0  0  0  0
   24.6410   11.1610   23.7010 H   0  0  0  0  0  0  0  0  0  0  0  0
   21.8000   11.3560   22.7280 H   0  0  0  0  0  0  0  0  0  0  0  0
   22.9450    9.4020   24.6910 H   0  0  0  0  0  0  0  0  0  0  0  0
   20.7500   11.4240   24.7090 H   0  0  0  0  0  0  0  0  0  0  0  0
   22.3140   11.5560   25.5490 H   0  0  0  0  0  0  0  0  0  0  0  0
   21.0260   12.1150   27.3730 H   0  0  0  0  0  0  0  0  0  0  0  0
   20.0310   10.9060   28.2190 H   0  0  0  0  0  0  0  0  0  0  0  0
   18.2760    9.7280   25.8250 H   0  0  0  0  0  0  0  0  0  0  0  0
   15.0390   10.7980   24.2720 H   0  0  0  0  0  0  0  0  0  0  0  0
   15.8950    9.4710   25.0950 H   0  0  0  0  0  0  0  0  0  0  0  0
   28.5260    9.8660   19.9470 H   0  0  0  0  0  0  0  0  0  0  0  0
   30.1070    9.1400   20.3250 H   0  0  0  0  0  0  0  0  0  0  0  0
   27.6300    9.0380   22.1010 H   0  0  0  0  0  0  0  0  0  0  0  0
   29.2110    8.3160   22.4830 H   0  0  0  0  0  0  0  0  0  0  0  0
   28.2560    7.6950   21.1150 H   0  0  0  0  0  0  0  0  0  0  0  0
   30.6590   10.9680   21.4900 H   0  0  0  0  0  0  0  0  0  0  0  0
   29.3100   10.6400   22.6050 H   0  0  0  0  0  0  0  0  0  0  0  0
   29.1680   12.3740   20.0840 H   0  0  0  0  0  0  0  0  0  0  0  0
   27.8030   12.0290   21.1730 H   0  0  0  0  0  0  0  0  0  0  0  0
   25.9760   13.3470   21.8560 H   0  0  0  0  0  0  0  0  0  0  0  0
   26.3290   12.0050   22.9700 H   0  0  0  0  0  0  0  0  0  0  0  0
   22.5320    9.1870   21.5580 H   0  0  0  0  0  0  0  0  0  0  0  0
   24.1210    9.2910   22.3530 H   0  0  0  0  0  0  0  0  0  0  0  0
   20.4240    9.7660   23.3780 H   0  0  0  0  0  0  0  0  0  0  0  0
   21.6460    9.7790   26.9900 H   0  0  0  0  0  0  0  0  0  0  0  0
   20.2260    9.5650   26.1800 H   0  0  0  0  0  0  0  0  0  0  0  0
   16.6760   10.7030   22.4260 H   0  0  0  0  0  0  0  0  0  0  0  0
   15.8580    9.1380   22.6540 H   0  0  0  0  0  0  0  0  0  0  0  0
   17.5210    9.3680   23.2470 H   0  0  0  0  0  0  0  0  0  0  0  0
   25.3280   15.6000   22.9520 H   0  0  0  0  0  0  0  0  0  0  0  0
   25.2740   17.7320   27.0000 H   0  0  0  0  0  0  0  0  0  0  0  0
  1 17  1  0  0  0  0
  1 18  1  0  0  0  0
  1 55  1  0  0  0  0
  1 56  1  0  0  0  0
  2 21  1  0  0  0  0
  2 22  1  0  0  0  0
  2 41  1  0  0  0  0
  2 57  1  0  0  0  0
  3  4  1  0  0  0  0
  3 22  1  0  0  0  0
  3 58  1  0  0  0  0
  4  9  1  0  0  0  0
  4 24  1  0  0  0  0
  4 59  1  0  0  0  0
  5  7  1  0  0  0  0
  5 24  1  0  0  0  0
  5 25  2  0  0  0  0
  6 25  1  0  0  0  0
  6 27  2  0  0  0  0
  6 45  1  0  0  0  0
  7  8  1  0  0  0  0
  7 29  2  0  0  0  0
  9 10  1  0  0  0  0
  9 30  1  0  0  0  0
  9 60  1  0  0  0  0
 10 31  1  0  0  0  0
 10 61  1  0  0  0  0
 10 62  1  0  0  0  0
 11 31  1  0  0  0  0
 11 32  1  0  0  0  0
 11 63  1  0  0  0  0
 11 64  1  0  0  0  0
 12 32  1  0  0  0  0
 12 33  2  0  0  0  0
 12 65  1  0  0  0  0
 13 33  1  0  0  0  0
 13 40  1  0  0  0  0
 13 66  1  0  0  0  0
 13 67  1  0  0  0  0
 14 15  1  0  0  0  0
 14 16  1  0  0  0  0
 14 68  1  0  0  0  0
 14 69  1  0  0  0  0
 15 70  1  0  0  0  0
 15 71  1  0  0  0  0
 15 72  1  0  0  0  0
 16 17  1  0  0  0  0
 16 73  1  0  0  0  0
 16 74  1  0  0  0  0
 17 75  1  0  0  0  0
 17 76  1  0  0  0  0
 18 19  2  0  0  0  0
 18 20  2  0  0  0  0
 18 21  1  0  0  0  0
 21 77  1  0  0  0  0
 21 78  1  0  0  0  0
 22 23  2  0  0  0  0
 24 79  1  0  0  0  0
 24 80  1  0  0  0  0
 25 26  1  0  0  0  0
 27 28  1  0  0  0  0
 27 29  1  0  0  0  0
 29 44  1  0  0  0  0
 30 81  1  0  0  0  0
 31 82  1  0  0  0  0
 31 83  1  0  0  0  0
 32 38  2  0  0  0  0
 33 34  1  0  0  0  0
 34 35  1  0  0  0  0
 34 36  2  0  0  0  0
 36 37  1  0  0  0  0
 36 38  1  0  0  0  0
 38 39  1  0  0  0  0
 40 84  1  0  0  0  0
 40 85  1  0  0  0  0
 40 86  1  0  0  0  0
 41 42  1  0  0  0  0
 41 87  1  0  0  0  0
 42 43  2  0  0  0  0
 42 46  1  0  0  0  0
 46 47  1  0  0  0  0
 46 53  2  0  0  0  0
 47 48  2  0  0  0  0
 47 88  1  0  0  0  0
 48 49  1  0  0  0  0
 49 50  1  0  0  0  0
 49 51  2  0  0  0  0
 51 52  1  0  0  0  0
 51 53  1  0  0  0  0
 53 54  1  0  0  0  0
M  CHG  1  31   1
M  END
>  <PARENT_CMPD_ID>
2HM1

>  <STANDARD_TYPE>
IC50

>  <RELATION>
=

>  <STANDARD_VALUE>
0.0020000001

>  <STANDARD_UNITS>
uM

>  <COMPOUND_KEY>
13

>  <PUBMED_ID>
17049233

>  <JOURNAL>
Bioorg.Med.Chem.Lett.

>  <YEAR>
2007

>  <VOLUME>
17

>  <FIRST_PAGE>
78

>  <Company>
Pfizer

>  <Resolution>
2.2

>  <idx>
7

>  <Model>
Train

>  <target>
8.6989698

>  <des_pred_mlr>
7.6049299

>  <RF_Canvas>
8.2017908

>  <DNN_Canvas>
7.6445103

>  <pred_CoMFA>
8.9994001

>  <pred_COMSIA>
8.8648996

>  <pred_abm5>
8.7973166

>  <pred_ff8>
8.3036327

>  <pred_gau6>
8.6092615

>  <CID>
BACE_7

>  <active>
1

>  <des_class_bayes>
1

>  <maacs_class_bayes>
1

>  <radial_class_bayes>
1

>  <dend_class_bayes>
1

>  <molprint_class_bayes>
1

>  <RF_canvas>
1

>  <DNN_canvas>
1

$$$$
4B00_9346
  MOE2015           3D

 62 66  0  0  1  0  0  0  0  0999 V2000
   16.1610   11.1300   22.0560 C   0  0  0  0  0  0  0  0  0  0  0  0
   17.1650   11.7330   21.0940 C   0  0  0  0  0  0  0  0  0  0  0  0
   18.2030   10.7760   20.7420 N   0  0  0  0  0  0  0  0  0  0  0  0
   19.4500   11.0230   21.2840 C   0  0  0  0  0  0  0  0  0  0  0  0
   20.5120   10.2400   21.0450 C   0  0  0  0  0  0  0  0  0  0  0  0
   20.2880    9.0580   20.2230 C   0  0  0  0  0  0  0  0  0  0  0  0
   19.0960    8.7430   19.6840 C   0  0  0  0  0  0  0  0  0  0  0  0
   17.9360    9.6560   19.9460 C   0  0  0  0  0  0  0  0  0  0  0  0
   16.8430    9.3700   19.4740 O   0  0  0  0  0  0  0  0  0  0  0  0
   18.8770    7.5430   18.8260 C   0  0  0  0  0  0  0  0  0  0  0  0
   21.9070   10.5220   21.5860 C   0  0  3  0  0  0  0  0  0  0  0  0
   21.9420   11.6860   22.5390 C   0  0  0  0  0  0  0  0  0  0  0  0
   21.7590   13.0360   22.2940 C   0  0  0  0  0  0  0  0  0  0  0  0
   21.8280   13.9240   23.3560 C   0  0  0  0  0  0  0  0  0  0  0  0
   22.0620   13.4700   24.6440 C   0  0  0  0  0  0  0  0  0  0  0  0
   22.2740   12.1200   24.8780 C   0  0  0  0  0  0  0  0  0  0  0  0
   22.2080   11.2490   23.8050 C   0  0  0  0  0  0  0  0  0  0  0  0
   22.3840    9.8000   23.6960 C   0  0  0  0  0  0  0  0  0  0  0  0
   22.2490    9.3910   22.4750 N   0  3  0  0  0  0  0  0  0  0  0  0
   22.7130    8.9970   24.7630 N   0  0  0  0  0  0  0  0  0  0  0  0
   22.4930   11.7200   26.1400 F   0  0  0  0  0  0  0  0  0  0  0  0
   22.9350   10.7900   20.5010 C   0  0  0  0  0  0  0  0  0  0  0  0
   22.5550   11.1850   19.2250 C   0  0  0  0  0  0  0  0  0  0  0  0
   23.5070   11.4570   18.2560 C   0  0  0  0  0  0  0  0  0  0  0  0
   24.8480   11.3540   18.5770 C   0  0  0  0  0  0  0  0  0  0  0  0
   25.2730   10.9760   19.8400 C   0  0  0  0  0  0  0  0  0  0  0  0
   24.2950   10.7020   20.7890 C   0  0  0  0  0  0  0  0  0  0  0  0
   26.7050   10.9280   20.1670 C   0  0  0  0  0  0  0  0  0  0  0  0
   27.2660   10.0700   21.1040 C   0  0  0  0  0  0  0  0  0  0  0  0
   28.6050   10.1700   21.4240 C   0  0  0  0  0  0  0  0  0  0  0  0
   29.3710   11.1090   20.7610 C   0  0  0  0  0  0  0  0  0  0  0  0
   28.8900   11.9360   19.8290 N   0  0  0  0  0  0  0  0  0  0  0  0
   27.5810   11.8270   19.5760 C   0  0  0  0  0  0  0  0  0  0  0  0
   29.2630    9.3800   22.4020 C   0  0  0  0  0  0  0  0  0  0  0  0
   29.8220    8.7140   23.2280 C   0  0  0  0  0  0  0  0  0  0  0  0
   30.5020    7.9050   24.2340 C   0  0  0  0  0  0  0  0  0  0  0  0
   15.3990   11.8710   22.2980 H   0  0  0  0  0  0  0  0  0  0  0  0
   16.6720   10.8220   22.9680 H   0  0  0  0  0  0  0  0  0  0  0  0
   15.6900   10.2630   21.5930 H   0  0  0  0  0  0  0  0  0  0  0  0
   17.6280   12.6020   21.5620 H   0  0  0  0  0  0  0  0  0  0  0  0
   16.6460   12.0430   20.1870 H   0  0  0  0  0  0  0  0  0  0  0  0
   19.5740   11.8820   21.9270 H   0  0  0  0  0  0  0  0  0  0  0  0
   21.1230    8.3990   20.0360 H   0  0  0  0  0  0  0  0  0  0  0  0
   17.8340    7.5060   18.5130 H   0  0  0  0  0  0  0  0  0  0  0  0
   19.1190    6.6430   19.3910 H   0  0  0  0  0  0  0  0  0  0  0  0
   19.5180    7.6030   17.9470 H   0  0  0  0  0  0  0  0  0  0  0  0
   21.5660   13.3910   21.2930 H   0  0  0  0  0  0  0  0  0  0  0  0
   21.6980   14.9810   23.1780 H   0  0  0  0  0  0  0  0  0  0  0  0
   22.0790   14.1690   25.4670 H   0  0  0  0  0  0  0  0  0  0  0  0
   22.8690    8.0090   24.6220 H   0  0  0  0  0  0  0  0  0  0  0  0
   22.7990    9.3950   25.6870 H   0  0  0  0  0  0  0  0  0  0  0  0
   21.5060   11.2810   18.9860 H   0  0  0  0  0  0  0  0  0  0  0  0
   23.2050   11.7460   17.2600 H   0  0  0  0  0  0  0  0  0  0  0  0
   25.5860   11.5750   17.8200 H   0  0  0  0  0  0  0  0  0  0  0  0
   24.6000   10.4110   21.7830 H   0  0  0  0  0  0  0  0  0  0  0  0
   26.6520    9.3220   21.5840 H   0  0  0  0  0  0  0  0  0  0  0  0
   30.4190   11.1780   21.0110 H   0  0  0  0  0  0  0  0  0  0  0  0
   27.1670   12.5030   18.8420 H   0  0  0  0  0  0  0  0  0  0  0  0
   30.7250    6.9220   23.8190 H   0  0  0  0  0  0  0  0  0  0  0  0
   29.8580    7.7940   25.1070 H   0  0  0  0  0  0  0  0  0  0  0  0
   31.4300    8.3950   24.5280 H   0  0  0  0  0  0  0  0  0  0  0  0
   22.3610    8.4340   22.1720 H   0  0  0  0  0  0  0  0  0  0  0  0
  1  2  1  0  0  0  0
  1 37  1  0  0  0  0
  1 38  1  0  0  0  0
  1 39  1  0  0  0  0
  2  3  1  0  0  0  0
  2 40  1  0  0  0  0
  2 41  1  0  0  0  0
  3  4  1  0  0  0  0
  3  8  1  0  0  0  0
  4  5  2  0  0  0  0
  4 42  1  0  0  0  0
  5  6  1  0  0  0  0
  5 11  1  0  0  0  0
  6  7  2  0  0  0  0
  6 43  1  0  0  0  0
  7  8  1  0  0  0  0
  7 10  1  0  0  0  0
  8  9  2  0  0  0  0
 10 44  1  0  0  0  0
 10 45  1  0  0  0  0
 10 46  1  0  0  0  0
 11 12  1  0  0  0  0
 11 19  1  0  0  0  0
 11 22  1  0  0  0  0
 12 13  1  0  0  0  0
 12 17  2  0  0  0  0
 13 14  2  0  0  0  0
 13 47  1  0  0  0  0
 14 15  1  0  0  0  0
 14 48  1  0  0  0  0
 15 16  2  0  0  0  0
 15 49  1  0  0  0  0
 16 17  1  0  0  0  0
 16 21  1  0  0  0  0
 17 18  1  0  0  0  0
 18 19  2  0  0  0  0
 18 20  1  0  0  0  0
 19 62  1  0  0  0  0
 20 50  1  0  0  0  0
 20 51  1  0  0  0  0
 22 23  1  0  0  0  0
 22 27  2  0  0  0  0
 23 24  2  0  0  0  0
 23 52  1  0  0  0  0
 24 25  1  0  0  0  0
 24 53  1  0  0  0  0
 25 26  2  0  0  0  0
 25 54  1  0  0  0  0
 26 27  1  0  0  0  0
 26 28  1  0  0  0  0
 27 55  1  0  0  0  0
 28 29  1  0  0  0  0
 28 33  2  0  0  0  0
 29 30  2  0  0  0  0
 29 56  1  0  0  0  0
 30 31  1  0  0  0  0
 30 34  1  0  0  0  0
 31 32  2  0  0  0  0
 31 57  1  0  0  0  0
 32 33  1  0  0  0  0
 33 58  1  0  0  0  0
 34 35  3  0  0  0  0
 35 36  1  0  0  0  0
 36 59  1  0  0  0  0
 36 60  1  0  0  0  0
 36 61  1  0  0  0  0
M  CHG  1  19   1
M  END
>  <PARENT_CMPD_ID>
4B00

>  <STANDARD_TYPE>
IC50

>  <RELATION>
=

>  <STANDARD_VALUE>
0.00244

>  <STANDARD_UNITS>
uM

>  <COMPOUND_KEY>
(R)-41

>  <PUBMED_ID>
22924815

>  <JOURNAL>
J.Med.Chem.

>  <YEAR>
2012

>  <VOLUME>
55

>  <FIRST_PAGE>
9346

>  <Company>
AstraZeneca

>  <Resolution>
1.83

>  <idx>
8

>  <Model>
Train

>  <target>
8.6126099

>  <des_pred_mlr>
7.1774101

>  <RF_Canvas>
8.1217289

>  <DNN_Canvas>
8.2149401

>  <pred_CoMFA>
8.7434998

>  <pred_COMSIA>
8.625

>  <pred_abm5>
8.4535284

>  <pred_ff8>
6.5353847

>  <pred_gau6>
8.1111021

>  <CID>
BACE_8

>  <active>
1

>  <des_class_bayes>
1

>  <maacs_class_bayes>
1

>  <radial_class_bayes>
1

>  <dend_class_bayes>
1

>  <molprint_class_bayes>
1

>  <RF_canvas>
1

>  <DNN_canvas>
1

$$$$
4KE1_4459
  MOE2015           3D

 83 88  0  0  1  0  0  0  0  0999 V2000
   19.0400   12.1840   29.2930 C   0  0  0  0  0  0  0  0  0  0  0  0
   19.8920   12.8760   30.3640 C   0  0  0  0  0  0  0  0  0  0  0  0
   20.4970   13.7790   29.2730 C   0  0  0  0  0  0  0  0  0  0  0  0
   19.9230   12.8290   28.2160 C   0  0  0  0  0  0  0  0  0  0  0  0
   20.9700   11.8500   27.6690 C   0  0  0  0  0  0  0  0  0  0  0  0
   19.1720   13.4790   27.1770 O   0  0  0  0  0  0  0  0  0  0  0  0
   18.5910   12.6550   26.2430 C   0  0  0  0  0  0  0  0  0  0  0  0
   17.5240   13.1630   25.4930 C   0  0  0  0  0  0  0  0  0  0  0  0
   16.8930   12.3690   24.5340 C   0  0  0  0  0  0  0  0  0  0  0  0
   17.3430   11.0620   24.3060 C   0  0  0  0  0  0  0  0  0  0  0  0
   16.6530   10.2000   23.2440 C   0  0  0  0  0  0  0  0  0  0  0  0
   15.8400    9.0750   23.8800 C   0  0  0  0  0  0  0  0  0  0  0  0
   18.4240   10.5510   25.0390 C   0  0  0  0  0  0  0  0  0  0  0  0
   19.0610   11.3510   26.0030 C   0  0  0  0  0  0  0  0  0  0  0  0
   20.2360   10.7780   26.8320 C   0  0  3  0  0  0  0  0  0  0  0  0
   21.2140   10.0370   26.0170 N   0  3  0  0  0  0  0  0  0  0  0  0
   21.8820   10.7970   24.9370 C   0  0  0  0  0  0  0  0  0  0  0  0
   22.4030    9.7770   23.9150 C   0  0  3  0  0  0  0  0  0  0  0  0
   21.3080    8.9440   23.5150 O   0  0  0  0  0  0  0  0  0  0  0  0
   22.9400   10.4440   22.6370 C   0  0  3  0  0  0  0  0  0  0  0  0
   23.3270    9.3940   21.5750 C   0  0  0  0  0  0  0  0  0  0  0  0
   24.2240    9.9890   20.4720 C   0  0  0  0  0  0  0  0  0  0  0  0
   25.5910    9.7390   20.4580 C   0  0  0  0  0  0  0  0  0  0  0  0
   23.6640   10.7890   19.4800 C   0  0  0  0  0  0  0  0  0  0  0  0
   24.4790   11.3270   18.4810 C   0  0  0  0  0  0  0  0  0  0  0  0
   25.8510   11.0840   18.4760 C   0  0  0  0  0  0  0  0  0  0  0  0
   26.4120   10.2760   19.4600 C   0  0  0  0  0  0  0  0  0  0  0  0
   27.9200    9.9980   19.4710 C   0  0  0  0  0  0  0  0  0  0  0  0
   28.7130   11.2200   19.9640 C   0  0  0  0  0  0  0  0  0  0  0  0
   28.8080   11.2890   21.4890 C   0  0  0  0  0  0  0  0  0  0  0  0
   28.9880   12.7480   21.9690 C   0  0  0  0  0  0  0  0  0  0  0  0
   27.8380   13.1790   22.8130 N   0  0  0  0  0  0  0  0  0  0  0  0
   26.5540   12.7490   22.4930 C   0  0  0  0  0  0  0  0  0  0  0  0
   28.0190   14.0230   23.9470 C   0  0  0  0  0  0  0  0  0  0  0  0
   29.1380   14.4210   24.2670 O   0  0  0  0  0  0  0  0  0  0  0  0
   26.9230   14.4100   24.7220 C   0  0  0  0  0  0  0  0  0  0  0  0
   25.6460   13.9600   24.3900 C   0  0  0  0  0  0  0  0  0  0  0  0
   25.4720   13.1480   23.2670 C   0  0  0  0  0  0  0  0  0  0  0  0
   24.1100   12.5960   22.9110 C   0  0  0  0  0  0  0  0  0  0  0  0
   23.1240   13.3020   22.7220 O   0  0  0  0  0  0  0  0  0  0  0  0
   24.1100   11.2590   22.9540 N   0  0  0  0  0  0  0  0  0  0  0  0
   17.9980   12.5050   29.2710 H   0  0  0  0  0  0  0  0  0  0  0  0
   19.0850   11.0950   29.3180 H   0  0  0  0  0  0  0  0  0  0  0  0
   20.6130   12.2220   30.8540 H   0  0  0  0  0  0  0  0  0  0  0  0
   19.3150   13.4110   31.1180 H   0  0  0  0  0  0  0  0  0  0  0  0
   21.5860   13.8330   29.2860 H   0  0  0  0  0  0  0  0  0  0  0  0
   20.0840   14.7870   29.2430 H   0  0  0  0  0  0  0  0  0  0  0  0
   21.4990   11.3750   28.4950 H   0  0  0  0  0  0  0  0  0  0  0  0
   21.6830   12.3850   27.0410 H   0  0  0  0  0  0  0  0  0  0  0  0
   17.1870   14.1760   25.6570 H   0  0  0  0  0  0  0  0  0  0  0  0
   16.0600   12.7610   23.9690 H   0  0  0  0  0  0  0  0  0  0  0  0
   17.4110    9.7650   22.5930 H   0  0  0  0  0  0  0  0  0  0  0  0
   15.9860   10.8300   22.6550 H   0  0  0  0  0  0  0  0  0  0  0  0
   16.4990    8.4400   24.4720 H   0  0  0  0  0  0  0  0  0  0  0  0
   15.3690    8.4800   23.0980 H   0  0  0  0  0  0  0  0  0  0  0  0
   15.0720    9.5020   24.5250 H   0  0  0  0  0  0  0  0  0  0  0  0
   18.7670    9.5420   24.8630 H   0  0  0  0  0  0  0  0  0  0  0  0
   19.7610   10.0760   27.5170 H   0  0  0  0  0  0  0  0  0  0  0  0
   20.7320    9.2580   25.5920 H   0  0  0  0  0  0  0  0  0  0  0  0
   21.9310    9.6900   26.6380 H   0  0  0  0  0  0  0  0  0  0  0  0
   22.7120   11.3730   25.3450 H   0  0  0  0  0  0  0  0  0  0  0  0
   21.1710   11.4720   24.4610 H   0  0  0  0  0  0  0  0  0  0  0  0
   23.2120    9.2230   24.3910 H   0  0  0  0  0  0  0  0  0  0  0  0
   20.6470    9.5090   23.1080 H   0  0  0  0  0  0  0  0  0  0  0  0
   22.1470   11.0720   22.2310 H   0  0  0  0  0  0  0  0  0  0  0  0
   22.4170    9.0060   21.1170 H   0  0  0  0  0  0  0  0  0  0  0  0
   23.8640    8.5810   22.0640 H   0  0  0  0  0  0  0  0  0  0  0  0
   26.0260    9.1210   21.2290 H   0  0  0  0  0  0  0  0  0  0  0  0
   22.6030   10.9930   19.4830 H   0  0  0  0  0  0  0  0  0  0  0  0
   24.0410   11.9370   17.7050 H   0  0  0  0  0  0  0  0  0  0  0  0
   26.4760   11.5210   17.7120 H   0  0  0  0  0  0  0  0  0  0  0  0
   28.2420    9.7510   18.4600 H   0  0  0  0  0  0  0  0  0  0  0  0
   28.1200    9.1550   20.1320 H   0  0  0  0  0  0  0  0  0  0  0  0
   28.2200   12.1230   19.6050 H   0  0  0  0  0  0  0  0  0  0  0  0
   29.7220   11.1690   19.5540 H   0  0  0  0  0  0  0  0  0  0  0  0
   29.6620   10.6970   21.8200 H   0  0  0  0  0  0  0  0  0  0  0  0
   27.8940   10.8820   21.9220 H   0  0  0  0  0  0  0  0  0  0  0  0
   29.0580   13.4030   21.1000 H   0  0  0  0  0  0  0  0  0  0  0  0
   29.9050   12.8200   22.5530 H   0  0  0  0  0  0  0  0  0  0  0  0
   26.3980   12.1040   21.6410 H   0  0  0  0  0  0  0  0  0  0  0  0
   27.0650   15.0560   25.5760 H   0  0  0  0  0  0  0  0  0  0  0  0
   24.7970   14.2370   24.9970 H   0  0  0  0  0  0  0  0  0  0  0  0
   24.9630   10.7890   23.2190 H   0  0  0  0  0  0  0  0  0  0  0  0
  1  2  1  0  0  0  0
  1  4  1  0  0  0  0
  1 42  1  0  0  0  0
  1 43  1  0  0  0  0
  2  3  1  0  0  0  0
  2 44  1  0  0  0  0
  2 45  1  0  0  0  0
  3  4  1  0  0  0  0
  3 46  1  0  0  0  0
  3 47  1  0  0  0  0
  4  5  1  0  0  0  0
  4  6  1  0  0  0  0
  5 15  1  0  0  0  0
  5 48  1  0  0  0  0
  5 49  1  0  0  0  0
  6  7  1  0  0  0  0
  7  8  1  0  0  0  0
  7 14  2  0  0  0  0
  8  9  2  0  0  0  0
  8 50  1  0  0  0  0
  9 10  1  0  0  0  0
  9 51  1  0  0  0  0
 10 11  1  0  0  0  0
 10 13  2  0  0  0  0
 11 12  1  0  0  0  0
 11 52  1  0  0  0  0
 11 53  1  0  0  0  0
 12 54  1  0  0  0  0
 12 55  1  0  0  0  0
 12 56  1  0  0  0  0
 13 14  1  0  0  0  0
 13 57  1  0  0  0  0
 14 15  1  0  0  0  0
 15 16  1  0  0  0  0
 15 58  1  0  0  0  0
 16 17  1  0  0  0  0
 16 59  1  0  0  0  0
 16 60  1  0  0  0  0
 17 18  1  0  0  0  0
 17 61  1  0  0  0  0
 17 62  1  0  0  0  0
 18 19  1  0  0  0  0
 18 20  1  0  0  0  0
 18 63  1  0  0  0  0
 19 64  1  0  0  0  0
 20 21  1  0  0  0  0
 20 41  1  0  0  0  0
 20 65  1  0  0  0  0
 21 22  1  0  0  0  0
 21 66  1  0  0  0  0
 21 67  1  0  0  0  0
 22 23  1  0  0  0  0
 22 24  2  0  0  0  0
 23 27  2  0  0  0  0
 23 68  1  0  0  0  0
 24 25  1  0  0  0  0
 24 69  1  0  0  0  0
 25 26  2  0  0  0  0
 25 70  1  0  0  0  0
 26 27  1  0  0  0  0
 26 71  1  0  0  0  0
 27 28  1  0  0  0  0
 28 29  1  0  0  0  0
 28 72  1  0  0  0  0
 28 73  1  0  0  0  0
 29 30  1  0  0  0  0
 29 74  1  0  0  0  0
 29 75  1  0  0  0  0
 30 31  1  0  0  0  0
 30 76  1  0  0  0  0
 30 77  1  0  0  0  0
 31 32  1  0  0  0  0
 31 78  1  0  0  0  0
 31 79  1  0  0  0  0
 32 33  1  0  0  0  0
 32 34  1  0  0  0  0
 33 38  2  0  0  0  0
 33 80  1  0  0  0  0
 34 35  2  0  0  0  0
 34 36  1  0  0  0  0
 36 37  2  0  0  0  0
 36 81  1  0  0  0  0
 37 38  1  0  0  0  0
 37 82  1  0  0  0  0
 38 39  1  0  0  0  0
 39 40  2  0  0  0  0
 39 41  1  0  0  0  0
 41 83  1  0  0  0  0
M  CHG  1  16   1
M  END
>  <PARENT_CMPD_ID>
4KE1

>  <STANDARD_TYPE>
IC50

>  <RELATION>
=

>  <STANDARD_VALUE>
0.0024999999

>  <STANDARD_UNITS>
uM

>  <COMPOUND_KEY>
19

>  <PUBMED_ID>
23769639

>  <JOURNAL>
Bioorg.Med.Chem.Lett.

>  <YEAR>
2013

>  <VOLUME>
23

>  <FIRST_PAGE>
4459

>  <Company>
Amgen

>  <Resolution>
1.91

>  <idx>
9

>  <Model>
Train

>  <target>
8.6020603

>  <des_pred_mlr>
8.8153801

>  <RF_Canvas>
8.2012787

>  <DNN_Canvas>
7.8031101

>  <pred_CoMFA>
8.191

>  <pred_COMSIA>
7.5950999

>  <pred_abm5>
8.0853157

>  <pred_ff8>
7.7896762

>  <pred_gau6>
7.7598815

>  <CID>
BACE_9

>  <active>
1

>  <des_class_bayes>
1

>  <maacs_class_bayes>
1

>  <radial_class_bayes>
1

>  <dend_class_bayes>
1

>  <molprint_class_bayes>
1

>  <RF_canvas>
1

>  <DNN_canvas>
1

$$$$
3K5G_1924
  MOE2015           3D

 93 96  0  0  1  0  0  0  0  0999 V2000
   28.6520   13.1640   21.6650 N   0  0  0  0  0  0  0  0  0  0  0  0
   28.2010   12.5730   20.3680 C   0  0  0  0  0  0  0  0  0  0  0  0
   28.8070   11.2090   19.9240 C   0  0  0  0  0  0  0  0  0  0  0  0
   28.7710   10.2310   21.1190 C   0  0  0  0  0  0  0  0  0  0  0  0
   29.6150   10.8400   22.2670 C   0  0  0  0  0  0  0  0  0  0  0  0
   29.3190   12.3140   22.5520 C   0  0  0  0  0  0  0  0  0  0  0  0
   29.7230   12.6680   23.6480 O   0  0  0  0  0  0  0  0  0  0  0  0
   28.4010   14.6200   22.0330 C   0  0  0  0  0  0  0  0  0  0  0  0
   27.4430   14.6270   23.2990 C   0  0  3  0  0  0  0  0  0  0  0  0
   26.1040   13.8470   23.0520 C   0  0  0  0  0  0  0  0  0  0  0  0
   25.1690   13.7500   24.2850 C   0  0  3  0  0  0  0  0  0  0  0  0
   24.9550   15.1700   24.9220 C   0  0  0  0  0  0  0  0  0  0  0  0
   26.3140   15.8360   25.2740 C   0  0  0  0  0  0  0  0  0  0  0  0
   27.1800   16.0140   23.9880 C   0  0  0  0  0  0  0  0  0  0  0  0
   23.8950   13.0700   23.8410 C   0  0  0  0  0  0  0  0  0  0  0  0
   22.8660   13.7110   23.6470 O   0  0  0  0  0  0  0  0  0  0  0  0
   23.9630   11.7120   23.6640 N   0  0  0  0  0  0  0  0  0  0  0  0
   22.8390   10.8720   23.2340 C   0  0  3  0  0  0  0  0  0  0  0  0
   22.2680   10.0490   24.4240 C   0  0  3  0  0  0  0  0  0  0  0  0
   21.1960    9.2000   23.9890 O   0  0  0  0  0  0  0  0  0  0  0  0
   21.6840   10.9850   25.5160 C   0  0  0  0  0  0  0  0  0  0  0  0
   20.9770   10.2500   26.5880 N   0  3  0  0  0  0  0  0  0  0  0  0
   20.1080   11.0920   27.4660 C   0  0  0  0  0  0  0  0  0  0  0  0
   18.9310   11.7090   26.6690 C   0  0  0  0  0  0  0  0  0  0  0  0
   18.0130   10.8860   25.9770 C   0  0  0  0  0  0  0  0  0  0  0  0
   16.9270   11.4370   25.2410 C   0  0  0  0  0  0  0  0  0  0  0  0
   16.7750   12.8460   25.2140 C   0  0  0  0  0  0  0  0  0  0  0  0
   17.6900   13.6830   25.9060 C   0  0  0  0  0  0  0  0  0  0  0  0
   18.7640   13.1200   26.6330 C   0  0  0  0  0  0  0  0  0  0  0  0
   15.9290   10.5150   24.5000 C   0  0  0  0  0  0  0  0  0  0  0  0
   16.4620   10.1440   23.1010 C   0  0  0  0  0  0  0  0  0  0  0  0
   15.4880    9.2400   25.2660 C   0  0  0  0  0  0  0  0  0  0  0  0
   23.3360    9.9460   22.0730 C   0  0  0  0  0  0  0  0  0  0  0  0
   23.9450   10.6220   20.8300 C   0  0  0  0  0  0  0  0  0  0  0  0
   23.6500   11.9700   20.4590 C   0  0  0  0  0  0  0  0  0  0  0  0
   24.2360   12.5400   19.2980 C   0  0  0  0  0  0  0  0  0  0  0  0
   25.1180   11.7700   18.5040 C   0  0  0  0  0  0  0  0  0  0  0  0
   25.4170   10.4300   18.8640 C   0  0  0  0  0  0  0  0  0  0  0  0
   24.8330    9.8630   20.0240 C   0  0  0  0  0  0  0  0  0  0  0  0
   27.7290   15.4260   20.8510 C   0  0  0  0  0  0  0  0  0  0  0  0
   29.7230   15.4400   22.2650 C   0  0  0  0  0  0  0  0  0  0  0  0
   28.4310   13.2970   19.5870 H   0  0  0  0  0  0  0  0  0  0  0  0
   27.1210   12.4400   20.4330 H   0  0  0  0  0  0  0  0  0  0  0  0
   29.8380   11.3550   19.6020 H   0  0  0  0  0  0  0  0  0  0  0  0
   28.2230   10.8000   19.0990 H   0  0  0  0  0  0  0  0  0  0  0  0
   29.1910    9.2700   20.8220 H   0  0  0  0  0  0  0  0  0  0  0  0
   27.7420   10.0910   21.4510 H   0  0  0  0  0  0  0  0  0  0  0  0
   30.6680   10.7480   22.0020 H   0  0  0  0  0  0  0  0  0  0  0  0
   29.4180   10.2700   23.1750 H   0  0  0  0  0  0  0  0  0  0  0  0
   28.0370   14.0840   24.0340 H   0  0  0  0  0  0  0  0  0  0  0  0
   26.3550   12.8340   22.7370 H   0  0  0  0  0  0  0  0  0  0  0  0
   25.5600   14.3520   22.2530 H   0  0  0  0  0  0  0  0  0  0  0  0
   25.6070   13.1490   25.0810 H   0  0  0  0  0  0  0  0  0  0  0  0
   24.3630   15.0670   25.8310 H   0  0  0  0  0  0  0  0  0  0  0  0
   24.4220   15.8020   24.2120 H   0  0  0  0  0  0  0  0  0  0  0  0
   26.8500   15.2060   25.9840 H   0  0  0  0  0  0  0  0  0  0  0  0
   26.1300   16.8130   25.7220 H   0  0  0  0  0  0  0  0  0  0  0  0
   26.6550   16.6660   23.2900 H   0  0  0  0  0  0  0  0  0  0  0  0
   28.1340   16.4660   24.2590 H   0  0  0  0  0  0  0  0  0  0  0  0
   24.8480   11.2580   23.8420 H   0  0  0  0  0  0  0  0  0  0  0  0
   22.0220   11.4970   22.8730 H   0  0  0  0  0  0  0  0  0  0  0  0
   23.0940    9.4590   24.8220 H   0  0  0  0  0  0  0  0  0  0  0  0
   20.4980    9.7650   23.6490 H   0  0  0  0  0  0  0  0  0  0  0  0
   20.9820   11.6730   25.0450 H   0  0  0  0  0  0  0  0  0  0  0  0
   22.5020   11.5500   25.9630 H   0  0  0  0  0  0  0  0  0  0  0  0
   21.6700    9.8020   27.1700 H   0  0  0  0  0  0  0  0  0  0  0  0
   20.3960    9.5460   26.1550 H   0  0  0  0  0  0  0  0  0  0  0  0
   20.7080   11.8960   27.8930 H   0  0  0  0  0  0  0  0  0  0  0  0
   19.7070   10.4720   28.2680 H   0  0  0  0  0  0  0  0  0  0  0  0
   18.1390    9.8140   26.0080 H   0  0  0  0  0  0  0  0  0  0  0  0
   15.9570   13.2860   24.6630 H   0  0  0  0  0  0  0  0  0  0  0  0
   17.5650   14.7550   25.8770 H   0  0  0  0  0  0  0  0  0  0  0  0
   19.4560   13.7610   27.1600 H   0  0  0  0  0  0  0  0  0  0  0  0
   15.0220   11.1140   24.4160 H   0  0  0  0  0  0  0  0  0  0  0  0
   17.3670    9.5460   23.2040 H   0  0  0  0  0  0  0  0  0  0  0  0
   16.6890   11.0540   22.5460 H   0  0  0  0  0  0  0  0  0  0  0  0
   15.7060    9.5700   22.5650 H   0  0  0  0  0  0  0  0  0  0  0  0
   16.3450    8.5790   25.3940 H   0  0  0  0  0  0  0  0  0  0  0  0
   14.7130    8.7250   24.6980 H   0  0  0  0  0  0  0  0  0  0  0  0
   15.0960    9.5210   26.2440 H   0  0  0  0  0  0  0  0  0  0  0  0
   22.4820    9.3570   21.7380 H   0  0  0  0  0  0  0  0  0  0  0  0
   24.0950    9.2830   22.4880 H   0  0  0  0  0  0  0  0  0  0  0  0
   22.9770   12.5590   21.0650 H   0  0  0  0  0  0  0  0  0  0  0  0
   24.0090   13.5590   19.0220 H   0  0  0  0  0  0  0  0  0  0  0  0
   25.5650   12.2030   17.6210 H   0  0  0  0  0  0  0  0  0  0  0  0
   26.0890    9.8430   18.2550 H   0  0  0  0  0  0  0  0  0  0  0  0
   25.0660    8.8440   20.2970 H   0  0  0  0  0  0  0  0  0  0  0  0
   26.7830   14.9560   20.5830 H   0  0  0  0  0  0  0  0  0  0  0  0
   28.3930   15.4250   19.9870 H   0  0  0  0  0  0  0  0  0  0  0  0
   27.5480   16.4530   21.1680 H   0  0  0  0  0  0  0  0  0  0  0  0
   30.2960   14.9840   23.0720 H   0  0  0  0  0  0  0  0  0  0  0  0
   29.4720   16.4660   22.5330 H   0  0  0  0  0  0  0  0  0  0  0  0
   30.3170   15.4380   21.3510 H   0  0  0  0  0  0  0  0  0  0  0  0
  1  2  1  0  0  0  0
  1  6  1  0  0  0  0
  1  8  1  0  0  0  0
  2  3  1  0  0  0  0
  2 42  1  0  0  0  0
  2 43  1  0  0  0  0
  3  4  1  0  0  0  0
  3 44  1  0  0  0  0
  3 45  1  0  0  0  0
  4  5  1  0  0  0  0
  4 46  1  0  0  0  0
  4 47  1  0  0  0  0
  5  6  1  0  0  0  0
  5 48  1  0  0  0  0
  5 49  1  0  0  0  0
  6  7  2  0  0  0  0
  8  9  1  0  0  0  0
  8 40  1  0  0  0  0
  8 41  1  0  0  0  0
  9 10  1  0  0  0  0
  9 14  1  0  0  0  0
  9 50  1  0  0  0  0
 10 11  1  0  0  0  0
 10 51  1  0  0  0  0
 10 52  1  0  0  0  0
 11 12  1  0  0  0  0
 11 15  1  0  0  0  0
 11 53  1  0  0  0  0
 12 13  1  0  0  0  0
 12 54  1  0  0  0  0
 12 55  1  0  0  0  0
 13 14  1  0  0  0  0
 13 56  1  0  0  0  0
 13 57  1  0  0  0  0
 14 58  1  0  0  0  0
 14 59  1  0  0  0  0
 15 16  2  0  0  0  0
 15 17  1  0  0  0  0
 17 18  1  0  0  0  0
 17 60  1  0  0  0  0
 18 19  1  0  0  0  0
 18 33  1  0  0  0  0
 18 61  1  0  0  0  0
 19 20  1  0  0  0  0
 19 21  1  0  0  0  0
 19 62  1  0  0  0  0
 20 63  1  0  0  0  0
 21 22  1  0  0  0  0
 21 64  1  0  0  0  0
 21 65  1  0  0  0  0
 22 23  1  0  0  0  0
 22 66  1  0  0  0  0
 22 67  1  0  0  0  0
 23 24  1  0  0  0  0
 23 68  1  0  0  0  0
 23 69  1  0  0  0  0
 24 25  1  0  0  0  0
 24 29  2  0  0  0  0
 25 26  2  0  0  0  0
 25 70  1  0  0  0  0
 26 27  1  0  0  0  0
 26 30  1  0  0  0  0
 27 28  2  0  0  0  0
 27 71  1  0  0  0  0
 28 29  1  0  0  0  0
 28 72  1  0  0  0  0
 29 73  1  0  0  0  0
 30 31  1  0  0  0  0
 30 32  1  0  0  0  0
 30 74  1  0  0  0  0
 31 75  1  0  0  0  0
 31 76  1  0  0  0  0
 31 77  1  0  0  0  0
 32 78  1  0  0  0  0
 32 79  1  0  0  0  0
 32 80  1  0  0  0  0
 33 34  1  0  0  0  0
 33 81  1  0  0  0  0
 33 82  1  0  0  0  0
 34 35  1  0  0  0  0
 34 39  2  0  0  0  0
 35 36  2  0  0  0  0
 35 83  1  0  0  0  0
 36 37  1  0  0  0  0
 36 84  1  0  0  0  0
 37 38  2  0  0  0  0
 37 85  1  0  0  0  0
 38 39  1  0  0  0  0
 38 86  1  0  0  0  0
 39 87  1  0  0  0  0
 40 88  1  0  0  0  0
 40 89  1  0  0  0  0
 40 90  1  0  0  0  0
 41 91  1  0  0  0  0
 41 92  1  0  0  0  0
 41 93  1  0  0  0  0
M  CHG  1  22   1
M  END
>  <PARENT_CMPD_ID>
3K5G

>  <STANDARD_TYPE>
IC50

>  <RELATION>
=

>  <STANDARD_VALUE>
0.0024999999

>  <STANDARD_UNITS>
uM

>  <COMPOUND_KEY>
25

>  <PUBMED_ID>
20172717

>  <JOURNAL>
Bioorg.Med.Chem.Lett.

>  <YEAR>
2010

>  <VOLUME>
20

>  <FIRST_PAGE>
1924

>  <Company>
U.Montreal

>  <Resolution>
2

>  <idx>
10

>  <Model>
Train

>  <target>
8.6020603

>  <des_pred_mlr>
7.2964802

>  <RF_Canvas>
8.1333656

>  <DNN_Canvas>
7.805336

>  <pred_CoMFA>
7.6535001

>  <pred_COMSIA>
7.7735

>  <pred_abm5>
7.8669386

>  <pred_ff8>
7.7023358

>  <pred_gau6>
7.6047997

>  <CID>
BACE_10

>  <active>
1

>  <des_class_bayes>
1

>  <maacs_class_bayes>
0

>  <radial_class_bayes>
1

>  <dend_class_bayes>
1

>  <molprint_class_bayes>
1

>  <RF_canvas>
1

>  <DNN_canvas>
1

$$$$
2QMF_414
  MOE2015           3D

 85 88  0  0  1  0  0  0  0  0999 V2000
   26.8190   15.8060   24.3920 C   0  0  0  0  0  0  0  0  0  0  0  0
   25.5460   16.2410   24.8300 C   0  0  0  0  0  0  0  0  0  0  0  0
   24.3950   15.4410   24.5400 C   0  0  0  0  0  0  0  0  0  0  0  0
   24.5200   14.2160   23.8200 C   0  0  0  0  0  0  0  0  0  0  0  0
   25.8000   13.8060   23.3950 C   0  0  0  0  0  0  0  0  0  0  0  0
   26.9580   14.5950   23.6720 C   0  0  0  0  0  0  0  0  0  0  0  0
   28.2950   14.1340   23.2260 C   0  0  0  0  0  0  0  0  0  0  0  0
   28.6070   13.9160   21.8620 N   0  0  0  0  0  0  0  0  0  0  0  0
   29.1390   13.9250   24.0880 O   0  0  0  0  0  0  0  0  0  0  0  0
   27.6920   14.1320   20.6990 C   0  0  0  0  0  0  0  0  0  0  0  0
   28.1860   15.2690   19.7770 C   0  0  0  0  0  0  0  0  0  0  0  0
   28.5330   16.5640   20.5360 C   0  0  0  0  0  0  0  0  0  0  0  0
   29.9830   13.4350   21.5570 C   0  0  0  0  0  0  0  0  0  0  0  0
   29.9840   11.9660   21.0390 C   0  0  0  0  0  0  0  0  0  0  0  0
   29.1910   10.9700   21.9150 C   0  0  0  0  0  0  0  0  0  0  0  0
   25.4190   17.5390   25.5930 C   0  0  0  0  0  0  0  0  0  0  0  0
   23.3130   13.4070   23.5240 C   0  0  0  0  0  0  0  0  0  0  0  0
   23.5110   12.0510   23.4210 N   0  0  0  0  0  0  0  0  0  0  0  0
   22.1940   13.9080   23.3690 O   0  0  0  0  0  0  0  0  0  0  0  0
   22.4190   11.0940   23.1130 C   0  0  3  0  0  0  0  0  0  0  0  0
   22.0040   10.2690   24.3480 C   0  0  3  0  0  0  0  0  0  0  0  0
   22.9030   10.1770   21.9510 C   0  0  0  0  0  0  0  0  0  0  0  0
   20.9460    9.4100   23.9810 O   0  0  0  0  0  0  0  0  0  0  0  0
   23.5320   10.9500   20.8090 C   0  0  0  0  0  0  0  0  0  0  0  0
   24.8690   10.6710   20.4190 C   0  0  0  0  0  0  0  0  0  0  0  0
   25.4510   11.3970   19.3520 C   0  0  0  0  0  0  0  0  0  0  0  0
   24.7510   12.4010   18.6510 C   0  0  0  0  0  0  0  0  0  0  0  0
   23.4230   12.6660   19.0540 C   0  0  0  0  0  0  0  0  0  0  0  0
   22.8060   11.9630   20.1120 C   0  0  0  0  0  0  0  0  0  0  0  0
   26.7010   11.1220   19.0030 F   0  0  0  0  0  0  0  0  0  0  0  0
   22.7310   13.6090   18.4140 F   0  0  0  0  0  0  0  0  0  0  0  0
   19.3740   11.8390   26.5120 C   0  0  3  0  0  0  0  0  0  0  0  0
   20.3110   11.1740   27.5160 C   0  0  0  0  0  0  0  0  0  0  0  0
   21.1000   10.2640   26.6810 N   0  3  0  0  0  0  0  0  0  0  0  0
   20.2880   12.0070   25.2730 C   0  0  0  0  0  0  0  0  0  0  0  0
   21.5140   11.1110   25.5570 C   0  0  3  0  0  0  0  0  0  0  0  0
   18.3000   10.9030   26.3110 O   0  0  0  0  0  0  0  0  0  0  0  0
   17.3170   11.1830   25.3460 C   0  0  0  0  0  0  0  0  0  0  0  0
   16.8490   12.4910   24.9650 C   0  0  0  0  0  0  0  0  0  0  0  0
   15.8540   12.6250   23.9760 C   0  0  0  0  0  0  0  0  0  0  0  0
   15.3110   11.4770   23.3520 C   0  0  0  0  0  0  0  0  0  0  0  0
   15.7640   10.1830   23.7200 C   0  0  0  0  0  0  0  0  0  0  0  0
   16.7620   10.0420   24.7110 C   0  0  0  0  0  0  0  0  0  0  0  0
   27.6920   16.4030   24.6090 H   0  0  0  0  0  0  0  0  0  0  0  0
   23.4200   15.7690   24.8700 H   0  0  0  0  0  0  0  0  0  0  0  0
   25.9070   12.8790   22.8510 H   0  0  0  0  0  0  0  0  0  0  0  0
   26.7010   14.3880   21.0740 H   0  0  0  0  0  0  0  0  0  0  0  0
   27.6340   13.2100   20.1210 H   0  0  0  0  0  0  0  0  0  0  0  0
   27.4020   15.4920   19.0530 H   0  0  0  0  0  0  0  0  0  0  0  0
   29.0780   14.9260   19.2530 H   0  0  0  0  0  0  0  0  0  0  0  0
   27.6510   16.9220   21.0670 H   0  0  0  0  0  0  0  0  0  0  0  0
   28.8630   17.3230   19.8270 H   0  0  0  0  0  0  0  0  0  0  0  0
   29.3310   16.3630   21.2510 H   0  0  0  0  0  0  0  0  0  0  0  0
   30.5840   13.4890   22.4650 H   0  0  0  0  0  0  0  0  0  0  0  0
   30.4200   14.0780   20.7930 H   0  0  0  0  0  0  0  0  0  0  0  0
   31.0180   11.6250   20.9890 H   0  0  0  0  0  0  0  0  0  0  0  0
   29.5500   11.9590   20.0390 H   0  0  0  0  0  0  0  0  0  0  0  0
   29.6080   10.9600   22.9220 H   0  0  0  0  0  0  0  0  0  0  0  0
   29.2600    9.9720   21.4830 H   0  0  0  0  0  0  0  0  0  0  0  0
   28.1460   11.2760   21.9580 H   0  0  0  0  0  0  0  0  0  0  0  0
   26.4040   17.9910   25.7080 H   0  0  0  0  0  0  0  0  0  0  0  0
   24.9930   17.3420   26.5770 H   0  0  0  0  0  0  0  0  0  0  0  0
   24.7680   18.2200   25.0450 H   0  0  0  0  0  0  0  0  0  0  0  0
   24.4430   11.6890   23.5610 H   0  0  0  0  0  0  0  0  0  0  0  0
   21.5270   11.6440   22.8120 H   0  0  0  0  0  0  0  0  0  0  0  0
   22.9020    9.7400   24.6660 H   0  0  0  0  0  0  0  0  0  0  0  0
   22.0470    9.6230   21.5660 H   0  0  0  0  0  0  0  0  0  0  0  0
   23.6400    9.4780   22.3450 H   0  0  0  0  0  0  0  0  0  0  0  0
   20.2040    9.9590   23.7170 H   0  0  0  0  0  0  0  0  0  0  0  0
   25.4380    9.9100   20.9330 H   0  0  0  0  0  0  0  0  0  0  0  0
   25.2110   12.9450   17.8390 H   0  0  0  0  0  0  0  0  0  0  0  0
   21.7880   12.1910   20.3930 H   0  0  0  0  0  0  0  0  0  0  0  0
   18.9270   12.7940   26.7870 H   0  0  0  0  0  0  0  0  0  0  0  0
   19.7490   10.6240   28.2710 H   0  0  0  0  0  0  0  0  0  0  0  0
   20.9490   11.9110   28.0030 H   0  0  0  0  0  0  0  0  0  0  0  0
   20.5390    9.4880   26.3610 H   0  0  0  0  0  0  0  0  0  0  0  0
   21.9020    9.9140   27.1850 H   0  0  0  0  0  0  0  0  0  0  0  0
   20.5920   13.0480   25.1590 H   0  0  0  0  0  0  0  0  0  0  0  0
   19.7740   11.6780   24.3700 H   0  0  0  0  0  0  0  0  0  0  0  0
   22.3840   11.7280   25.7820 H   0  0  0  0  0  0  0  0  0  0  0  0
   17.2610   13.3700   25.4380 H   0  0  0  0  0  0  0  0  0  0  0  0
   15.5050   13.6070   23.6930 H   0  0  0  0  0  0  0  0  0  0  0  0
   14.5500   11.5860   22.5940 H   0  0  0  0  0  0  0  0  0  0  0  0
   15.3470    9.3080   23.2440 H   0  0  0  0  0  0  0  0  0  0  0  0
   17.1050    9.0560   24.9880 H   0  0  0  0  0  0  0  0  0  0  0  0
  1  2  1  0  0  0  0
  1  6  2  0  0  0  0
  1 44  1  0  0  0  0
  2  3  2  0  0  0  0
  2 16  1  0  0  0  0
  3  4  1  0  0  0  0
  3 45  1  0  0  0  0
  4  5  2  0  0  0  0
  4 17  1  0  0  0  0
  5  6  1  0  0  0  0
  5 46  1  0  0  0  0
  6  7  1  0  0  0  0
  7  8  1  0  0  0  0
  7  9  2  0  0  0  0
  8 10  1  0  0  0  0
  8 13  1  0  0  0  0
 10 11  1  0  0  0  0
 10 47  1  0  0  0  0
 10 48  1  0  0  0  0
 11 12  1  0  0  0  0
 11 49  1  0  0  0  0
 11 50  1  0  0  0  0
 12 51  1  0  0  0  0
 12 52  1  0  0  0  0
 12 53  1  0  0  0  0
 13 14  1  0  0  0  0
 13 54  1  0  0  0  0
 13 55  1  0  0  0  0
 14 15  1  0  0  0  0
 14 56  1  0  0  0  0
 14 57  1  0  0  0  0
 15 58  1  0  0  0  0
 15 59  1  0  0  0  0
 15 60  1  0  0  0  0
 16 61  1  0  0  0  0
 16 62  1  0  0  0  0
 16 63  1  0  0  0  0
 17 18  1  0  0  0  0
 17 19  2  0  0  0  0
 18 20  1  0  0  0  0
 18 64  1  0  0  0  0
 20 21  1  0  0  0  0
 20 22  1  0  0  0  0
 20 65  1  0  0  0  0
 21 23  1  0  0  0  0
 21 36  1  0  0  0  0
 21 66  1  0  0  0  0
 22 24  1  0  0  0  0
 22 67  1  0  0  0  0
 22 68  1  0  0  0  0
 23 69  1  0  0  0  0
 24 25  1  0  0  0  0
 24 29  2  0  0  0  0
 25 26  2  0  0  0  0
 25 70  1  0  0  0  0
 26 27  1  0  0  0  0
 26 30  1  0  0  0  0
 27 28  2  0  0  0  0
 27 71  1  0  0  0  0
 28 29  1  0  0  0  0
 28 31  1  0  0  0  0
 29 72  1  0  0  0  0
 32 33  1  0  0  0  0
 32 35  1  0  0  0  0
 32 37  1  0  0  0  0
 32 73  1  0  0  0  0
 33 34  1  0  0  0  0
 33 74  1  0  0  0  0
 33 75  1  0  0  0  0
 34 36  1  0  0  0  0
 34 76  1  0  0  0  0
 34 77  1  0  0  0  0
 35 36  1  0  0  0  0
 35 78  1  0  0  0  0
 35 79  1  0  0  0  0
 36 80  1  0  0  0  0
 37 38  1  0  0  0  0
 38 39  1  0  0  0  0
 38 43  2  0  0  0  0
 39 40  2  0  0  0  0
 39 81  1  0  0  0  0
 40 41  1  0  0  0  0
 40 82  1  0  0  0  0
 41 42  2  0  0  0  0
 41 83  1  0  0  0  0
 42 43  1  0  0  0  0
 42 84  1  0  0  0  0
 43 85  1  0  0  0  0
M  CHG  1  34   1
M  END
>  <PARENT_CMPD_ID>
2QMF

>  <STANDARD_TYPE>
IC50

>  <RELATION>
=

>  <STANDARD_VALUE>
0.003

>  <STANDARD_UNITS>
uM

>  <COMPOUND_KEY>
2f

>  <PUBMED_ID>
18023580

>  <JOURNAL>
Bioorg.Med.Chem.Lett.

>  <YEAR>
2008

>  <VOLUME>
18

>  <FIRST_PAGE>
414

>  <Company>
Schering

>  <Resolution>
1.75

>  <idx>
11

>  <Model>
Train

>  <target>
8.5228786

>  <des_pred_mlr>
7.63375

>  <RF_Canvas>
8.3012962

>  <DNN_Canvas>
7.5220838

>  <pred_CoMFA>
8.5228004

>  <pred_COMSIA>
7.8383999

>  <pred_abm5>
8.5571461

>  <pred_ff8>
7.0188179

>  <pred_gau6>
8.1657181

>  <CID>
BACE_11

>  <active>
1

>  <des_class_bayes>
1

>  <maacs_class_bayes>
1

>  <radial_class_bayes>
1

>  <dend_class_bayes>
1

>  <molprint_class_bayes>
1

>  <RF_canvas>
1

>  <DNN_canvas>
1

$$$$
3CIC_3236
  MOE2015           3D

 88 91  0  0  1  0  0  0  0  0999 V2000
   27.0090   15.7570   24.3210 C   0  0  0  0  0  0  0  0  0  0  0  0
   27.1360   14.5330   23.6070 C   0  0  0  0  0  0  0  0  0  0  0  0
   25.9690   13.7630   23.3040 C   0  0  0  0  0  0  0  0  0  0  0  0
   24.6840   14.2260   23.7090 C   0  0  0  0  0  0  0  0  0  0  0  0
   24.5620   15.4590   24.4160 C   0  0  0  0  0  0  0  0  0  0  0  0
   25.7280   16.2230   24.7240 C   0  0  0  0  0  0  0  0  0  0  0  0
   28.4690   14.0540   23.2140 C   0  0  0  0  0  0  0  0  0  0  0  0
   28.7100   13.8180   21.8860 N   0  0  0  0  0  0  0  0  0  0  0  0
   29.3450   13.8590   24.0520 O   0  0  0  0  0  0  0  0  0  0  0  0
   30.0390   13.3340   21.5350 C   0  0  0  0  0  0  0  0  0  0  0  0
   27.7300   14.0300   20.8180 C   0  0  0  0  0  0  0  0  0  0  0  0
   28.2850   15.0260   19.8040 C   0  0  0  0  0  0  0  0  0  0  0  0
   28.8650   16.2730   20.4820 C   0  0  0  0  0  0  0  0  0  0  0  0
   29.9860   11.8570   21.0850 C   0  0  0  0  0  0  0  0  0  0  0  0
   29.1570   10.9640   22.0140 C   0  0  0  0  0  0  0  0  0  0  0  0
   25.6080   17.4930   25.4580 C   0  0  0  0  0  0  0  0  0  0  0  0
   23.4870   13.4500   23.3790 C   0  0  0  0  0  0  0  0  0  0  0  0
   22.4200   13.9790   23.1030 O   0  0  0  0  0  0  0  0  0  0  0  0
   23.6490   12.1010   23.3970 N   0  0  0  0  0  0  0  0  0  0  0  0
   22.5050   11.2390   23.0530 C   0  0  3  0  0  0  0  0  0  0  0  0
   21.9740   10.4070   24.2600 C   0  0  3  0  0  0  0  0  0  0  0  0
   20.9610    9.5010   23.8000 O   0  0  0  0  0  0  0  0  0  0  0  0
   22.9070   10.2840   21.9240 C   0  0  0  0  0  0  0  0  0  0  0  0
   23.6060   11.0150   20.7990 C   0  0  0  0  0  0  0  0  0  0  0  0
   22.9220   12.0320   20.0700 C   0  0  0  0  0  0  0  0  0  0  0  0
   23.5880   12.7130   19.0110 C   0  0  0  0  0  0  0  0  0  0  0  0
   24.9290   12.3810   18.6760 C   0  0  0  0  0  0  0  0  0  0  0  0
   25.6110   11.3700   19.3980 C   0  0  0  0  0  0  0  0  0  0  0  0
   24.9550   10.6830   20.4620 C   0  0  0  0  0  0  0  0  0  0  0  0
   22.9630   13.6650   18.3230 F   0  0  0  0  0  0  0  0  0  0  0  0
   26.8670   11.0700   19.0740 F   0  0  0  0  0  0  0  0  0  0  0  0
   21.3800   11.2420   25.4020 C   0  0  3  0  0  0  0  0  0  0  0  0
   20.0820   11.9660   24.9770 C   0  0  0  0  0  0  0  0  0  0  0  0
   19.0390   11.9050   25.8520 N   0  0  0  0  0  0  0  0  0  0  0  0
   19.0240   11.2130   27.1510 C   0  0  0  0  0  0  0  0  0  0  0  0
   20.3910   10.8510   27.6500 C   0  0  0  0  0  0  0  0  0  0  0  0
   21.2060   10.3740   26.5550 N   0  3  0  0  0  0  0  0  0  0  0  0
   20.0220   12.5560   23.9050 O   0  0  0  0  0  0  0  0  0  0  0  0
   17.7840   12.5710   25.4960 C   0  0  0  0  0  0  0  0  0  0  0  0
   16.7230   11.5530   25.1450 C   0  0  0  0  0  0  0  0  0  0  0  0
   16.8800   10.7260   23.9960 C   0  0  0  0  0  0  0  0  0  0  0  0
   15.8810    9.7650   23.6680 C   0  0  0  0  0  0  0  0  0  0  0  0
   14.7260    9.6320   24.4910 C   0  0  0  0  0  0  0  0  0  0  0  0
   14.5670   10.4610   25.6430 C   0  0  0  0  0  0  0  0  0  0  0  0
   15.5670   11.4220   25.9680 C   0  0  0  0  0  0  0  0  0  0  0  0
   27.8900   16.3350   24.5580 H   0  0  0  0  0  0  0  0  0  0  0  0
   26.0620   12.8300   22.7680 H   0  0  0  0  0  0  0  0  0  0  0  0
   23.5880   15.8140   24.7180 H   0  0  0  0  0  0  0  0  0  0  0  0
   30.6910   13.4190   22.4040 H   0  0  0  0  0  0  0  0  0  0  0  0
   30.4370   13.9410   20.7220 H   0  0  0  0  0  0  0  0  0  0  0  0
   26.8070   14.4230   21.2450 H   0  0  0  0  0  0  0  0  0  0  0  0
   27.5250   13.0820   20.3200 H   0  0  0  0  0  0  0  0  0  0  0  0
   27.4810   15.3310   19.1340 H   0  0  0  0  0  0  0  0  0  0  0  0
   29.0730   14.5400   19.2280 H   0  0  0  0  0  0  0  0  0  0  0  0
   28.0850   16.7670   21.0610 H   0  0  0  0  0  0  0  0  0  0  0  0
   29.2420   16.9570   19.7220 H   0  0  0  0  0  0  0  0  0  0  0  0
   29.6800   15.9810   21.1450 H   0  0  0  0  0  0  0  0  0  0  0  0
   31.0040   11.4700   21.0520 H   0  0  0  0  0  0  0  0  0  0  0  0
   29.5500   11.8160   20.0870 H   0  0  0  0  0  0  0  0  0  0  0  0
   29.5800   10.9930   23.0180 H   0  0  0  0  0  0  0  0  0  0  0  0
   29.1730    9.9390   21.6420 H   0  0  0  0  0  0  0  0  0  0  0  0
   28.1290   11.3240   22.0420 H   0  0  0  0  0  0  0  0  0  0  0  0
   26.5980   17.9270   25.5980 H   0  0  0  0  0  0  0  0  0  0  0  0
   25.1520   17.3090   26.4310 H   0  0  0  0  0  0  0  0  0  0  0  0
   24.9850   18.1840   24.8890 H   0  0  0  0  0  0  0  0  0  0  0  0
   24.5410   11.6950   23.6430 H   0  0  0  0  0  0  0  0  0  0  0  0
   21.6970   11.9000   22.7400 H   0  0  0  0  0  0  0  0  0  0  0  0
   22.8440    9.8910   24.6650 H   0  0  0  0  0  0  0  0  0  0  0  0
   20.2330   10.0270   23.4600 H   0  0  0  0  0  0  0  0  0  0  0  0
   22.0110    9.8040   21.5310 H   0  0  0  0  0  0  0  0  0  0  0  0
   23.5800    9.5260   22.3250 H   0  0  0  0  0  0  0  0  0  0  0  0
   21.9020   12.2850   20.3200 H   0  0  0  0  0  0  0  0  0  0  0  0
   25.4280   12.8990   17.8710 H   0  0  0  0  0  0  0  0  0  0  0  0
   25.4760    9.9140   21.0120 H   0  0  0  0  0  0  0  0  0  0  0  0
   22.0640   12.0460   25.6720 H   0  0  0  0  0  0  0  0  0  0  0  0
   18.4400   10.2980   27.0480 H   0  0  0  0  0  0  0  0  0  0  0  0
   18.5500   11.8660   27.8840 H   0  0  0  0  0  0  0  0  0  0  0  0
   20.3050   10.0680   28.4040 H   0  0  0  0  0  0  0  0  0  0  0  0
   20.8590   11.7310   28.0920 H   0  0  0  0  0  0  0  0  0  0  0  0
   22.1250   10.1820   26.9270 H   0  0  0  0  0  0  0  0  0  0  0  0
   20.7900    9.5150   26.2240 H   0  0  0  0  0  0  0  0  0  0  0  0
   17.9540   13.2210   24.6380 H   0  0  0  0  0  0  0  0  0  0  0  0
   17.4420   13.1670   26.3420 H   0  0  0  0  0  0  0  0  0  0  0  0
   17.7570   10.8280   23.3730 H   0  0  0  0  0  0  0  0  0  0  0  0
   15.9990    9.1380   22.7970 H   0  0  0  0  0  0  0  0  0  0  0  0
   13.9690    8.9030   24.2430 H   0  0  0  0  0  0  0  0  0  0  0  0
   13.6910   10.3600   26.2660 H   0  0  0  0  0  0  0  0  0  0  0  0
   15.4490   12.0510   26.8380 H   0  0  0  0  0  0  0  0  0  0  0  0
  1  2  1  0  0  0  0
  1  6  2  0  0  0  0
  1 46  1  0  0  0  0
  2  3  2  0  0  0  0
  2  7  1  0  0  0  0
  3  4  1  0  0  0  0
  3 47  1  0  0  0  0
  4  5  2  0  0  0  0
  4 17  1  0  0  0  0
  5  6  1  0  0  0  0
  5 48  1  0  0  0  0
  6 16  1  0  0  0  0
  7  8  1  0  0  0  0
  7  9  2  0  0  0  0
  8 10  1  0  0  0  0
  8 11  1  0  0  0  0
 10 14  1  0  0  0  0
 10 49  1  0  0  0  0
 10 50  1  0  0  0  0
 11 12  1  0  0  0  0
 11 51  1  0  0  0  0
 11 52  1  0  0  0  0
 12 13  1  0  0  0  0
 12 53  1  0  0  0  0
 12 54  1  0  0  0  0
 13 55  1  0  0  0  0
 13 56  1  0  0  0  0
 13 57  1  0  0  0  0
 14 15  1  0  0  0  0
 14 58  1  0  0  0  0
 14 59  1  0  0  0  0
 15 60  1  0  0  0  0
 15 61  1  0  0  0  0
 15 62  1  0  0  0  0
 16 63  1  0  0  0  0
 16 64  1  0  0  0  0
 16 65  1  0  0  0  0
 17 18  2  0  0  0  0
 17 19  1  0  0  0  0
 19 20  1  0  0  0  0
 19 66  1  0  0  0  0
 20 21  1  0  0  0  0
 20 23  1  0  0  0  0
 20 67  1  0  0  0  0
 21 22  1  0  0  0  0
 21 32  1  0  0  0  0
 21 68  1  0  0  0  0
 22 69  1  0  0  0  0
 23 24  1  0  0  0  0
 23 70  1  0  0  0  0
 23 71  1  0  0  0  0
 24 25  1  0  0  0  0
 24 29  2  0  0  0  0
 25 26  2  0  0  0  0
 25 72  1  0  0  0  0
 26 27  1  0  0  0  0
 26 30  1  0  0  0  0
 27 28  2  0  0  0  0
 27 73  1  0  0  0  0
 28 29  1  0  0  0  0
 28 31  1  0  0  0  0
 29 74  1  0  0  0  0
 32 33  1  0  0  0  0
 32 37  1  0  0  0  0
 32 75  1  0  0  0  0
 33 34  1  0  0  0  0
 33 38  2  0  0  0  0
 34 35  1  0  0  0  0
 34 39  1  0  0  0  0
 35 36  1  0  0  0  0
 35 76  1  0  0  0  0
 35 77  1  0  0  0  0
 36 37  1  0  0  0  0
 36 78  1  0  0  0  0
 36 79  1  0  0  0  0
 37 80  1  0  0  0  0
 37 81  1  0  0  0  0
 39 40  1  0  0  0  0
 39 82  1  0  0  0  0
 39 83  1  0  0  0  0
 40 41  1  0  0  0  0
 40 45  2  0  0  0  0
 41 42  2  0  0  0  0
 41 84  1  0  0  0  0
 42 43  1  0  0  0  0
 42 85  1  0  0  0  0
 43 44  2  0  0  0  0
 43 86  1  0  0  0  0
 44 45  1  0  0  0  0
 44 87  1  0  0  0  0
 45 88  1  0  0  0  0
M  CHG  1  37   1
M  END
>  <PARENT_CMPD_ID>
3CIC

>  <STANDARD_TYPE>
IC50

>  <RELATION>
=

>  <STANDARD_VALUE>
0.003

>  <STANDARD_UNITS>
uM

>  <COMPOUND_KEY>
2a

>  <PUBMED_ID>
18468890

>  <JOURNAL>
Bioorg.Med.Chem.Lett.

>  <YEAR>
2008

>  <VOLUME>
18

>  <FIRST_PAGE>
3236

>  <Company>
Schering

>  <Resolution>
1.75

>  <idx>
12

>  <Model>
Train

>  <target>
8.5228786

>  <des_pred_mlr>
7.3176599

>  <RF_Canvas>
8.2460794

>  <DNN_Canvas>
7.6942601

>  <pred_CoMFA>
8.1802998

>  <pred_COMSIA>
7.8112998

>  <pred_abm5>
8.4585829

>  <pred_ff8>
7.6818376

>  <pred_gau6>
7.8962178

>  <CID>
BACE_12

>  <active>
1

>  <des_class_bayes>
1

>  <maacs_class_bayes>
1

>  <radial_class_bayes>
1

>  <dend_class_bayes>
1

>  <molprint_class_bayes>
1

>  <RF_canvas>
1

>  <DNN_canvas>
1

$$$$
2VNM_3313
  MOE2015           3D

 81 84  0  0  1  0  0  0  0  0999 V2000
   29.2850   10.7650   21.4900 C   0  0  0  0  0  0  0  0  0  0  0  0
   28.9490   12.1460   21.0130 C   0  0  0  0  0  0  0  0  0  0  0  0
   28.9160   18.6450   25.3810 C   0  0  0  0  0  0  0  0  0  0  0  0
   29.7510   17.3610   25.7180 C   0  0  0  0  0  0  0  0  0  0  0  0
   28.5810   16.1680   26.5350 S   0  0  0  0  0  0  0  0  0  0  0  0
   28.2290   16.7230   27.8260 O   0  0  0  0  0  0  0  0  0  0  0  0
   29.2420   14.8800   26.6610 O   0  0  0  0  0  0  0  0  0  0  0  0
   27.2770   16.0560   25.6850 N   0  0  0  0  0  0  0  0  0  0  0  0
   26.6070   17.3440   25.3620 C   0  0  0  0  0  0  0  0  0  0  0  0
   27.1890   15.0130   24.6900 C   0  0  0  0  0  0  0  0  0  0  0  0
   25.8590   14.4550   24.5320 C   0  0  0  0  0  0  0  0  0  0  0  0
   25.6390   13.4420   23.5630 C   0  0  0  0  0  0  0  0  0  0  0  0
   26.6940   12.9670   22.7280 C   0  0  0  0  0  0  0  0  0  0  0  0
   28.0120   13.5620   22.8660 C   0  0  0  0  0  0  0  0  0  0  0  0
   28.2540   14.6100   23.8630 C   0  0  0  0  0  0  0  0  0  0  0  0
   24.2640   12.8340   23.4510 C   0  0  0  0  0  0  0  0  0  0  0  0
   23.2760   13.5090   23.3690 O   0  0  0  0  0  0  0  0  0  0  0  0
   24.2420   11.4060   23.2190 N   0  0  0  0  0  0  0  0  0  0  0  0
   22.9960   10.7370   22.8220 C   0  0  3  0  0  0  0  0  0  0  0  0
   23.3570    9.7710   21.6730 C   0  0  0  0  0  0  0  0  0  0  0  0
   24.2480   10.4460   20.5990 C   0  0  0  0  0  0  0  0  0  0  0  0
   23.9020   11.7520   20.0470 C   0  0  0  0  0  0  0  0  0  0  0  0
   24.7460   12.3750   19.0590 C   0  0  0  0  0  0  0  0  0  0  0  0
   25.9230   11.6480   18.6130 C   0  0  0  0  0  0  0  0  0  0  0  0
   26.2710   10.3600   19.1520 C   0  0  0  0  0  0  0  0  0  0  0  0
   25.4350    9.7220   20.1530 C   0  0  0  0  0  0  0  0  0  0  0  0
   22.4590    9.9400   24.0480 C   0  0  3  0  0  0  0  0  0  0  0  0
   21.3270    9.1400   23.6200 O   0  0  0  0  0  0  0  0  0  0  0  0
   21.8760   10.9480   25.0720 C   0  0  0  0  0  0  0  0  0  0  0  0
   21.2280   10.1660   26.1610 N   0  3  0  0  0  0  0  0  0  0  0  0
   20.3450   11.0310   26.9730 C   0  0  0  0  0  0  0  0  0  0  0  0
   19.1420   11.5420   26.1410 C   0  0  0  0  0  0  0  0  0  0  0  0
   18.8950   12.9660   26.0730 C   0  0  0  0  0  0  0  0  0  0  0  0
   17.7790   13.4870   25.3130 C   0  0  0  0  0  0  0  0  0  0  0  0
   16.9060   12.5900   24.6070 C   0  0  0  0  0  0  0  0  0  0  0  0
   17.1670   11.1680   24.6690 C   0  0  0  0  0  0  0  0  0  0  0  0
   27.6000   18.2800   24.5840 C   0  0  0  0  0  0  0  0  0  0  0  0
   18.2720   10.6360   25.4350 C   0  0  0  0  0  0  0  0  0  0  0  0
   16.2480   10.2210   23.9350 C   0  0  0  0  0  0  0  0  0  0  0  0
   15.2160   10.8930   23.3520 F   0  0  0  0  0  0  0  0  0  0  0  0
   16.9390    9.5310   23.0030 F   0  0  0  0  0  0  0  0  0  0  0  0
   29.1190   13.1490   22.0200 N   0  0  0  0  0  0  0  0  0  0  0  0
   15.7300    9.3700   24.8340 F   0  0  0  0  0  0  0  0  0  0  0  0
   29.1350   10.0540   20.6780 H   0  0  0  0  0  0  0  0  0  0  0  0
   28.6390   10.5030   22.3280 H   0  0  0  0  0  0  0  0  0  0  0  0
   30.3260   10.7350   21.8110 H   0  0  0  0  0  0  0  0  0  0  0  0
   27.9090   12.1560   20.6870 H   0  0  0  0  0  0  0  0  0  0  0  0
   29.5970   12.3880   20.1700 H   0  0  0  0  0  0  0  0  0  0  0  0
   29.5250   19.3150   24.7740 H   0  0  0  0  0  0  0  0  0  0  0  0
   28.6420   19.1440   26.3100 H   0  0  0  0  0  0  0  0  0  0  0  0
   30.5680   17.6100   26.3950 H   0  0  0  0  0  0  0  0  0  0  0  0
   30.1560   16.9250   24.8050 H   0  0  0  0  0  0  0  0  0  0  0  0
   26.2980   17.8330   26.2860 H   0  0  0  0  0  0  0  0  0  0  0  0
   25.7310   17.1510   24.7420 H   0  0  0  0  0  0  0  0  0  0  0  0
   25.0440   14.8080   25.1460 H   0  0  0  0  0  0  0  0  0  0  0  0
   26.5160   12.1810   22.0080 H   0  0  0  0  0  0  0  0  0  0  0  0
   29.2290   15.0630   23.9610 H   0  0  0  0  0  0  0  0  0  0  0  0
   25.0880   10.8660   23.3310 H   0  0  0  0  0  0  0  0  0  0  0  0
   22.2320   11.4440   22.4980 H   0  0  0  0  0  0  0  0  0  0  0  0
   22.4370    9.4280   21.2010 H   0  0  0  0  0  0  0  0  0  0  0  0
   23.8930    8.9170   22.0880 H   0  0  0  0  0  0  0  0  0  0  0  0
   23.0070   12.2550   20.3810 H   0  0  0  0  0  0  0  0  0  0  0  0
   24.5110   13.3520   18.6620 H   0  0  0  0  0  0  0  0  0  0  0  0
   26.5550   12.0870   17.8550 H   0  0  0  0  0  0  0  0  0  0  0  0
   27.1650    9.8620   18.8080 H   0  0  0  0  0  0  0  0  0  0  0  0
   25.6820    8.7490   20.5520 H   0  0  0  0  0  0  0  0  0  0  0  0
   23.2640    9.3350   24.4660 H   0  0  0  0  0  0  0  0  0  0  0  0
   20.6650    9.7390   23.2660 H   0  0  0  0  0  0  0  0  0  0  0  0
   21.1390   11.5870   24.5850 H   0  0  0  0  0  0  0  0  0  0  0  0
   22.6760   11.5640   25.4830 H   0  0  0  0  0  0  0  0  0  0  0  0
   21.9430    9.7710   26.7550 H   0  0  0  0  0  0  0  0  0  0  0  0
   20.6800    9.4220   25.7540 H   0  0  0  0  0  0  0  0  0  0  0  0
   20.9180   11.8860   27.3320 H   0  0  0  0  0  0  0  0  0  0  0  0
   19.9720   10.4600   27.8230 H   0  0  0  0  0  0  0  0  0  0  0  0
   19.5500   13.6470   26.5950 H   0  0  0  0  0  0  0  0  0  0  0  0
   17.6020   14.5520   25.2760 H   0  0  0  0  0  0  0  0  0  0  0  0
   16.0690   12.9710   24.0400 H   0  0  0  0  0  0  0  0  0  0  0  0
   27.8890   17.7780   23.6610 H   0  0  0  0  0  0  0  0  0  0  0  0
   27.0780   19.2070   24.3450 H   0  0  0  0  0  0  0  0  0  0  0  0
   18.4430    9.5710   25.4780 H   0  0  0  0  0  0  0  0  0  0  0  0
   30.0250   13.5780   22.1450 H   0  0  0  0  0  0  0  0  0  0  0  0
  1  2  1  0  0  0  0
  1 44  1  0  0  0  0
  1 45  1  0  0  0  0
  1 46  1  0  0  0  0
  2 42  1  0  0  0  0
  2 47  1  0  0  0  0
  2 48  1  0  0  0  0
  3  4  1  0  0  0  0
  3 37  1  0  0  0  0
  3 49  1  0  0  0  0
  3 50  1  0  0  0  0
  4  5  1  0  0  0  0
  4 51  1  0  0  0  0
  4 52  1  0  0  0  0
  5  6  2  0  0  0  0
  5  7  2  0  0  0  0
  5  8  1  0  0  0  0
  8  9  1  0  0  0  0
  8 10  1  0  0  0  0
  9 37  1  0  0  0  0
  9 53  1  0  0  0  0
  9 54  1  0  0  0  0
 10 11  1  0  0  0  0
 10 15  2  0  0  0  0
 11 12  2  0  0  0  0
 11 55  1  0  0  0  0
 12 13  1  0  0  0  0
 12 16  1  0  0  0  0
 13 14  2  0  0  0  0
 13 56  1  0  0  0  0
 14 15  1  0  0  0  0
 14 42  1  0  0  0  0
 15 57  1  0  0  0  0
 16 17  2  0  0  0  0
 16 18  1  0  0  0  0
 18 19  1  0  0  0  0
 18 58  1  0  0  0  0
 19 20  1  0  0  0  0
 19 27  1  0  0  0  0
 19 59  1  0  0  0  0
 20 21  1  0  0  0  0
 20 60  1  0  0  0  0
 20 61  1  0  0  0  0
 21 22  1  0  0  0  0
 21 26  2  0  0  0  0
 22 23  2  0  0  0  0
 22 62  1  0  0  0  0
 23 24  1  0  0  0  0
 23 63  1  0  0  0  0
 24 25  2  0  0  0  0
 24 64  1  0  0  0  0
 25 26  1  0  0  0  0
 25 65  1  0  0  0  0
 26 66  1  0  0  0  0
 27 28  1  0  0  0  0
 27 29  1  0  0  0  0
 27 67  1  0  0  0  0
 28 68  1  0  0  0  0
 29 30  1  0  0  0  0
 29 69  1  0  0  0  0
 29 70  1  0  0  0  0
 30 31  1  0  0  0  0
 30 71  1  0  0  0  0
 30 72  1  0  0  0  0
 31 32  1  0  0  0  0
 31 73  1  0  0  0  0
 31 74  1  0  0  0  0
 32 33  1  0  0  0  0
 32 38  2  0  0  0  0
 33 34  2  0  0  0  0
 33 75  1  0  0  0  0
 34 35  1  0  0  0  0
 34 76  1  0  0  0  0
 35 36  2  0  0  0  0
 35 77  1  0  0  0  0
 36 38  1  0  0  0  0
 36 39  1  0  0  0  0
 37 78  1  0  0  0  0
 37 79  1  0  0  0  0
 38 80  1  0  0  0  0
 39 40  1  0  0  0  0
 39 41  1  0  0  0  0
 39 43  1  0  0  0  0
 42 81  1  0  0  0  0
M  CHG  1  30   1
M  END
>  <PARENT_CMPD_ID>
2VNM

>  <STANDARD_TYPE>
IC50

>  <RELATION>
=

>  <STANDARD_VALUE>
0.003

>  <STANDARD_UNITS>
uM

>  <COMPOUND_KEY>
1

>  <PUBMED_ID>
18457381

>  <JOURNAL>
J.Med.Chem.

>  <YEAR>
2008

>  <VOLUME>
51

>  <FIRST_PAGE>
3313

>  <Company>
GSK

>  <Resolution>
1.79

>  <idx>
13

>  <Model>
Train

>  <target>
8.5228786

>  <des_pred_mlr>
7.02913

>  <RF_Canvas>
8.121664

>  <DNN_Canvas>
7.7908111

>  <pred_CoMFA>
8.3548002

>  <pred_COMSIA>
7.6521001

>  <pred_abm5>
8.0187778

>  <pred_ff8>
7.859653

>  <pred_gau6>
8.0410566

>  <CID>
BACE_13

>  <active>
1

>  <des_class_bayes>
1

>  <maacs_class_bayes>
1

>  <radial_class_bayes>
1

>  <dend_class_bayes>
1

>  <molprint_class_bayes>
1

>  <RF_canvas>
1

>  <DNN_canvas>
1

$$$$
2XFK_4639
  MOE2015           3D

 94 97  0  0  1  0  0  0  0  0999 V2000
   29.2770   10.7980   21.6070 C   0  0  0  0  0  0  0  0  0  0  0  0
   29.0640   12.1760   21.0100 C   0  0  0  0  0  0  0  0  0  0  0  0
   29.2690   13.1540   22.0680 N   0  0  0  0  0  0  0  0  0  0  0  0
   28.1260   13.5140   22.8260 C   0  0  0  0  0  0  0  0  0  0  0  0
   28.2960   14.5110   23.7770 C   0  0  0  0  0  0  0  0  0  0  0  0
   27.2450   14.9490   24.5510 C   0  0  0  0  0  0  0  0  0  0  0  0
   25.9890   14.4010   24.4060 C   0  0  0  0  0  0  0  0  0  0  0  0
   25.8120   13.4090   23.4600 C   0  0  0  0  0  0  0  0  0  0  0  0
   26.8590   12.9700   22.6640 C   0  0  0  0  0  0  0  0  0  0  0  0
   24.4670   12.8370   23.2970 C   0  0  0  0  0  0  0  0  0  0  0  0
   23.4860   13.5710   23.2770 O   0  0  0  0  0  0  0  0  0  0  0  0
   24.4130   11.4770   23.1530 N   0  0  0  0  0  0  0  0  0  0  0  0
   23.1870   10.8210   22.7430 C   0  0  3  0  0  0  0  0  0  0  0  0
   23.5020    9.8670   21.5980 C   0  0  0  0  0  0  0  0  0  0  0  0
   24.3520   10.4960   20.5300 C   0  0  0  0  0  0  0  0  0  0  0  0
   23.9740   11.6980   19.9550 C   0  0  0  0  0  0  0  0  0  0  0  0
   24.7830   12.2580   18.9800 C   0  0  0  0  0  0  0  0  0  0  0  0
   25.9490   11.6360   18.5770 C   0  0  0  0  0  0  0  0  0  0  0  0
   26.3280   10.4440   19.1500 C   0  0  0  0  0  0  0  0  0  0  0  0
   25.5260    9.8760   20.1250 C   0  0  0  0  0  0  0  0  0  0  0  0
   22.5430   10.1470   23.9570 C   0  0  3  0  0  0  0  0  0  0  0  0
   21.4100    9.3600   23.5880 O   0  0  0  0  0  0  0  0  0  0  0  0
   21.9980   11.1450   24.9750 C   0  0  0  0  0  0  0  0  0  0  0  0
   21.3680   10.3940   26.0670 N   0  3  0  0  0  0  0  0  0  0  0  0
   20.3480   11.1510   26.8210 C   0  0  3  0  0  0  0  0  0  0  0  0
   20.9850   12.2540   27.6390 C   0  0  0  0  0  0  0  0  0  0  0  0
   19.2800   11.6910   25.8940 C   0  0  0  0  0  0  0  0  0  0  0  0
   19.2670   12.8480   25.4780 O   0  0  0  0  0  0  0  0  0  0  0  0
   18.3240   10.7630   25.5760 N   0  0  0  0  0  0  0  0  0  0  0  0
   17.2800   11.1290   24.6040 C   0  0  0  0  0  0  0  0  0  0  0  0
   17.0830    9.9730   23.6550 C   0  0  0  0  0  0  0  0  0  0  0  0
   15.9740   10.2300   22.6520 C   0  0  0  0  0  0  0  0  0  0  0  0
   14.6870   10.3890   23.4330 C   0  0  0  0  0  0  0  0  0  0  0  0
   14.7940   11.5820   24.3670 C   0  0  0  0  0  0  0  0  0  0  0  0
   15.9790   11.4400   25.3260 C   0  0  0  0  0  0  0  0  0  0  0  0
   27.4120   15.9900   25.5160 N   0  0  0  0  0  0  0  0  0  0  0  0
   26.5810   17.1510   25.3650 C   0  0  0  0  0  0  0  0  0  0  0  0
   25.5980   17.3940   26.2960 C   0  0  0  0  0  0  0  0  0  0  0  0
   24.7960   18.5090   26.1610 C   0  0  0  0  0  0  0  0  0  0  0  0
   24.9840   19.3540   25.0900 C   0  0  0  0  0  0  0  0  0  0  0  0
   25.9650   19.0960   24.1530 C   0  0  0  0  0  0  0  0  0  0  0  0
   26.7820   17.9820   24.2880 C   0  0  0  0  0  0  0  0  0  0  0  0
   28.7460   16.1330   26.5400 S   0  0  0  0  0  0  0  0  0  0  0  0
   29.8550   17.1970   25.6590 C   0  0  0  0  0  0  0  0  0  0  0  0
   29.3320   14.8140   26.6470 O   0  0  0  0  0  0  0  0  0  0  0  0
   28.3110   16.8350   27.7370 O   0  0  0  0  0  0  0  0  0  0  0  0
   29.1300   10.0410   20.8360 H   0  0  0  0  0  0  0  0  0  0  0  0
   28.5630   10.6380   22.4150 H   0  0  0  0  0  0  0  0  0  0  0  0
   30.2910   10.7250   21.9990 H   0  0  0  0  0  0  0  0  0  0  0  0
   28.0500   12.2590   20.6200 H   0  0  0  0  0  0  0  0  0  0  0  0
   29.7780   12.3460   20.2040 H   0  0  0  0  0  0  0  0  0  0  0  0
   30.1770   13.5550   22.2530 H   0  0  0  0  0  0  0  0  0  0  0  0
   29.2730   14.9520   23.9120 H   0  0  0  0  0  0  0  0  0  0  0  0
   25.1640   14.7380   25.0160 H   0  0  0  0  0  0  0  0  0  0  0  0
   26.6890   12.2060   21.9190 H   0  0  0  0  0  0  0  0  0  0  0  0
   25.2380   10.9230   23.3350 H   0  0  0  0  0  0  0  0  0  0  0  0
   22.4540   11.5340   22.3660 H   0  0  0  0  0  0  0  0  0  0  0  0
   22.5640    9.5410   21.1490 H   0  0  0  0  0  0  0  0  0  0  0  0
   24.0320    9.0030   22.0000 H   0  0  0  0  0  0  0  0  0  0  0  0
   23.0630   12.1910   20.2620 H   0  0  0  0  0  0  0  0  0  0  0  0
   24.4980   13.1960   18.5270 H   0  0  0  0  0  0  0  0  0  0  0  0
   26.5640   12.0860   17.8110 H   0  0  0  0  0  0  0  0  0  0  0  0
   27.2410    9.9570   18.8420 H   0  0  0  0  0  0  0  0  0  0  0  0
   25.8170    8.9390   20.5760 H   0  0  0  0  0  0  0  0  0  0  0  0
   23.3480    9.5480   24.3810 H   0  0  0  0  0  0  0  0  0  0  0  0
   20.7490    9.9550   23.2250 H   0  0  0  0  0  0  0  0  0  0  0  0
   21.2600   11.7910   24.4990 H   0  0  0  0  0  0  0  0  0  0  0  0
   22.8130   11.7520   25.3680 H   0  0  0  0  0  0  0  0  0  0  0  0
   22.0910   10.1090   26.7120 H   0  0  0  0  0  0  0  0  0  0  0  0
   20.9270    9.5750   25.6730 H   0  0  0  0  0  0  0  0  0  0  0  0
   19.8630   10.4660   27.5170 H   0  0  0  0  0  0  0  0  0  0  0  0
   21.4810   12.9600   26.9730 H   0  0  0  0  0  0  0  0  0  0  0  0
   21.7170   11.8230   28.3220 H   0  0  0  0  0  0  0  0  0  0  0  0
   20.2160   12.7730   28.2110 H   0  0  0  0  0  0  0  0  0  0  0  0
   18.3350    9.8460   26.0000 H   0  0  0  0  0  0  0  0  0  0  0  0
   17.5840   12.0170   24.0500 H   0  0  0  0  0  0  0  0  0  0  0  0
   16.8320    9.0840   24.2340 H   0  0  0  0  0  0  0  0  0  0  0  0
   18.0130    9.8030   23.1130 H   0  0  0  0  0  0  0  0  0  0  0  0
   15.8910    9.3890   21.9640 H   0  0  0  0  0  0  0  0  0  0  0  0
   16.1840   11.1400   22.0890 H   0  0  0  0  0  0  0  0  0  0  0  0
   14.5050    9.4870   24.0180 H   0  0  0  0  0  0  0  0  0  0  0  0
   13.8600   10.5450   22.7400 H   0  0  0  0  0  0  0  0  0  0  0  0
   13.8750   11.6600   24.9480 H   0  0  0  0  0  0  0  0  0  0  0  0
   14.9260   12.4860   23.7730 H   0  0  0  0  0  0  0  0  0  0  0  0
   16.0990   12.3740   25.8740 H   0  0  0  0  0  0  0  0  0  0  0  0
   15.7670   10.6320   26.0270 H   0  0  0  0  0  0  0  0  0  0  0  0
   25.4550   16.7180   27.1260 H   0  0  0  0  0  0  0  0  0  0  0  0
   24.0270   18.7170   26.8900 H   0  0  0  0  0  0  0  0  0  0  0  0
   24.3580   20.2270   24.9820 H   0  0  0  0  0  0  0  0  0  0  0  0
   26.0970   19.7620   23.3130 H   0  0  0  0  0  0  0  0  0  0  0  0
   27.5570   17.7730   23.5650 H   0  0  0  0  0  0  0  0  0  0  0  0
   30.1980   16.6950   24.7540 H   0  0  0  0  0  0  0  0  0  0  0  0
   30.7110   17.4330   26.2910 H   0  0  0  0  0  0  0  0  0  0  0  0
   29.3380   18.1180   25.3900 H   0  0  0  0  0  0  0  0  0  0  0  0
  1  2  1  0  0  0  0
  1 47  1  0  0  0  0
  1 48  1  0  0  0  0
  1 49  1  0  0  0  0
  2  3  1  0  0  0  0
  2 50  1  0  0  0  0
  2 51  1  0  0  0  0
  3  4  1  0  0  0  0
  3 52  1  0  0  0  0
  4  5  1  0  0  0  0
  4  9  2  0  0  0  0
  5  6  2  0  0  0  0
  5 53  1  0  0  0  0
  6  7  1  0  0  0  0
  6 36  1  0  0  0  0
  7  8  2  0  0  0  0
  7 54  1  0  0  0  0
  8  9  1  0  0  0  0
  8 10  1  0  0  0  0
  9 55  1  0  0  0  0
 10 11  2  0  0  0  0
 10 12  1  0  0  0  0
 12 13  1  0  0  0  0
 12 56  1  0  0  0  0
 13 14  1  0  0  0  0
 13 21  1  0  0  0  0
 13 57  1  0  0  0  0
 14 15  1  0  0  0  0
 14 58  1  0  0  0  0
 14 59  1  0  0  0  0
 15 16  1  0  0  0  0
 15 20  2  0  0  0  0
 16 17  2  0  0  0  0
 16 60  1  0  0  0  0
 17 18  1  0  0  0  0
 17 61  1  0  0  0  0
 18 19  2  0  0  0  0
 18 62  1  0  0  0  0
 19 20  1  0  0  0  0
 19 63  1  0  0  0  0
 20 64  1  0  0  0  0
 21 22  1  0  0  0  0
 21 23  1  0  0  0  0
 21 65  1  0  0  0  0
 22 66  1  0  0  0  0
 23 24  1  0  0  0  0
 23 67  1  0  0  0  0
 23 68  1  0  0  0  0
 24 25  1  0  0  0  0
 24 69  1  0  0  0  0
 24 70  1  0  0  0  0
 25 26  1  0  0  0  0
 25 27  1  0  0  0  0
 25 71  1  0  0  0  0
 26 72  1  0  0  0  0
 26 73  1  0  0  0  0
 26 74  1  0  0  0  0
 27 28  2  0  0  0  0
 27 29  1  0  0  0  0
 29 30  1  0  0  0  0
 29 75  1  0  0  0  0
 30 31  1  0  0  0  0
 30 35  1  0  0  0  0
 30 76  1  0  0  0  0
 31 32  1  0  0  0  0
 31 77  1  0  0  0  0
 31 78  1  0  0  0  0
 32 33  1  0  0  0  0
 32 79  1  0  0  0  0
 32 80  1  0  0  0  0
 33 34  1  0  0  0  0
 33 81  1  0  0  0  0
 33 82  1  0  0  0  0
 34 35  1  0  0  0  0
 34 83  1  0  0  0  0
 34 84  1  0  0  0  0
 35 85  1  0  0  0  0
 35 86  1  0  0  0  0
 36 37  1  0  0  0  0
 36 43  1  0  0  0  0
 37 38  1  0  0  0  0
 37 42  2  0  0  0  0
 38 39  2  0  0  0  0
 38 87  1  0  0  0  0
 39 40  1  0  0  0  0
 39 88  1  0  0  0  0
 40 41  2  0  0  0  0
 40 89  1  0  0  0  0
 41 42  1  0  0  0  0
 41 90  1  0  0  0  0
 42 91  1  0  0  0  0
 43 44  1  0  0  0  0
 43 45  2  0  0  0  0
 43 46  2  0  0  0  0
 44 92  1  0  0  0  0
 44 93  1  0  0  0  0
 44 94  1  0  0  0  0
M  CHG  1  24   1
M  END
>  <PARENT_CMPD_ID>
2XFK

>  <STANDARD_TYPE>
IC50

>  <RELATION>
=

>  <STANDARD_VALUE>
0.003

>  <STANDARD_UNITS>
uM

>  <COMPOUND_KEY>
41

>  <PUBMED_ID>
20579874

>  <JOURNAL>
Bioorg.Med.Chem.Lett.

>  <YEAR>
2010

>  <VOLUME>
20

>  <FIRST_PAGE>
4639

>  <Company>
GSK

>  <Resolution>
1.8

>  <idx>
14

>  <Model>
Train

>  <target>
8.5228786

>  <des_pred_mlr>
7.6626501

>  <RF_Canvas>
8.2322063

>  <DNN_Canvas>
7.7734113

>  <pred_CoMFA>
8.6707001

>  <pred_COMSIA>
8.7858

>  <pred_abm5>
8.7010603

>  <pred_ff8>
8.1556139

>  <pred_gau6>
8.7962112

>  <CID>
BACE_14

>  <active>
1

>  <des_class_bayes>
1

>  <maacs_class_bayes>
1

>  <radial_class_bayes>
1

>  <dend_class_bayes>
1

>  <molprint_class_bayes>
1

>  <RF_canvas>
1

>  <DNN_canvas>
1

$$$$
4LXK_5300
  MOE2015           3D

 75 77  0  0  1  0  0  0  0  0999 V2000
   28.6370    9.0490   20.9920 F   0  0  0  0  0  0  0  0  0  0  0  0
   29.3390   10.2000   20.8520 C   0  0  0  0  0  0  0  0  0  0  0  0
   30.1800   10.3200   21.9130 F   0  0  0  0  0  0  0  0  0  0  0  0
   30.0480   10.1320   19.7030 F   0  0  0  0  0  0  0  0  0  0  0  0
   28.3620   11.3970   20.7560 C   0  0  3  0  0  0  0  0  0  0  0  0
   27.5460   11.2170   19.5760 O   0  0  0  0  0  0  0  0  0  0  0  0
   26.1610   11.2660   19.6790 C   0  0  0  0  0  0  0  0  0  0  0  0
   25.4340   12.0980   18.7920 C   0  0  0  0  0  0  0  0  0  0  0  0
   24.0200   12.1600   18.8940 C   0  0  0  0  0  0  0  0  0  0  0  0
   23.3410   11.3970   19.8730 C   0  0  0  0  0  0  0  0  0  0  0  0
   24.0760   10.5680   20.7640 C   0  0  0  0  0  0  0  0  0  0  0  0
   25.4810   10.5050   20.6560 C   0  0  0  0  0  0  0  0  0  0  0  0
   23.3760    9.7500   21.8630 C   0  0  0  0  0  0  0  0  0  0  0  0
   22.8420   10.6760   23.0160 C   0  0  3  0  0  0  0  0  0  0  0  0
   22.1650    9.9260   24.2020 C   0  0  3  0  0  0  0  0  0  0  0  0
   21.4860   10.8970   25.2220 C   0  0  3  0  0  0  0  0  0  0  0  0
   22.4360   11.9810   25.8160 C   0  0  0  0  0  0  0  0  0  0  0  0
   23.2450   12.9580   24.5410 S   0  0  0  0  0  0  0  0  0  0  0  0
   23.9580   11.6310   23.5670 C   0  0  0  0  0  0  0  0  0  0  0  0
   22.1850   13.5830   23.6730 O   0  0  0  0  0  0  0  0  0  0  0  0
   20.8710   10.1560   26.3630 N   0  3  0  0  0  0  0  0  0  0  0  0
   19.9050   10.8040   27.3050 C   0  0  0  0  0  0  0  0  0  0  0  0
   18.7690   11.4900   26.5160 C   0  0  0  0  0  0  0  0  0  0  0  0
   17.8390   10.7050   25.7940 C   0  0  0  0  0  0  0  0  0  0  0  0
   16.7690   11.2730   25.0420 C   0  0  0  0  0  0  0  0  0  0  0  0
   16.6850   12.6990   25.0580 C   0  0  0  0  0  0  0  0  0  0  0  0
   17.6010   13.5060   25.7730 C   0  0  0  0  0  0  0  0  0  0  0  0
   18.6500   12.9040   26.5090 C   0  0  0  0  0  0  0  0  0  0  0  0
   15.7640   10.3610   24.2530 C   0  0  0  0  0  0  0  0  0  0  0  0
   15.2550    9.2240   25.1850 C   0  0  0  0  0  0  0  0  0  0  0  0
   14.4910   11.0820   23.6880 C   0  0  0  0  0  0  0  0  0  0  0  0
   16.4510    9.7020   23.0120 C   0  0  0  0  0  0  0  0  0  0  0  0
   21.1380    9.0360   23.7490 O   0  0  0  0  0  0  0  0  0  0  0  0
   23.3270   12.9410   18.0690 F   0  0  0  0  0  0  0  0  0  0  0  0
   26.0870   12.8300   17.8560 N   0  0  0  0  0  0  0  0  0  0  0  0
   29.1060   12.7620   20.7680 C   0  0  0  0  0  0  0  0  0  0  0  0
   28.1430   13.8270   20.6600 O   0  0  0  0  0  0  0  0  0  0  0  0
   28.7130   15.1370   20.8520 C   0  0  0  0  0  0  0  0  0  0  0  0
   27.7190   11.4200   21.6360 H   0  0  0  0  0  0  0  0  0  0  0  0
   22.2640   11.4440   19.9430 H   0  0  0  0  0  0  0  0  0  0  0  0
   26.0420    9.8700   21.3260 H   0  0  0  0  0  0  0  0  0  0  0  0
   24.0870    9.0370   22.2810 H   0  0  0  0  0  0  0  0  0  0  0  0
   22.5370    9.2110   21.4240 H   0  0  0  0  0  0  0  0  0  0  0  0
   22.0590   11.2620   22.5350 H   0  0  0  0  0  0  0  0  0  0  0  0
   22.9770    9.3810   24.6830 H   0  0  0  0  0  0  0  0  0  0  0  0
   20.7260   11.4050   24.6290 H   0  0  0  0  0  0  0  0  0  0  0  0
   23.2000   11.4860   26.4150 H   0  0  0  0  0  0  0  0  0  0  0  0
   21.8520   12.6480   26.4500 H   0  0  0  0  0  0  0  0  0  0  0  0
   24.5070   12.0600   22.7280 H   0  0  0  0  0  0  0  0  0  0  0  0
   24.6410   11.0570   24.1930 H   0  0  0  0  0  0  0  0  0  0  0  0
   21.6380    9.8240   26.9300 H   0  0  0  0  0  0  0  0  0  0  0  0
   20.3850    9.3680   25.9590 H   0  0  0  0  0  0  0  0  0  0  0  0
   20.4300   11.5500   27.9020 H   0  0  0  0  0  0  0  0  0  0  0  0
   19.4800   10.0460   27.9620 H   0  0  0  0  0  0  0  0  0  0  0  0
   17.9440    9.6300   25.8130 H   0  0  0  0  0  0  0  0  0  0  0  0
   15.8920   13.1790   24.5030 H   0  0  0  0  0  0  0  0  0  0  0  0
   17.5000   14.5810   25.7570 H   0  0  0  0  0  0  0  0  0  0  0  0
   19.3520   13.5140   27.0590 H   0  0  0  0  0  0  0  0  0  0  0  0
   14.7710    9.6600   26.0590 H   0  0  0  0  0  0  0  0  0  0  0  0
   16.0980    8.6110   25.5040 H   0  0  0  0  0  0  0  0  0  0  0  0
   14.5390    8.6040   24.6450 H   0  0  0  0  0  0  0  0  0  0  0  0
   13.9570   11.5680   24.5040 H   0  0  0  0  0  0  0  0  0  0  0  0
   13.8390   10.3490   23.2130 H   0  0  0  0  0  0  0  0  0  0  0  0
   14.7920   11.8300   22.9540 H   0  0  0  0  0  0  0  0  0  0  0  0
   17.3520    9.1780   23.3310 H   0  0  0  0  0  0  0  0  0  0  0  0
   16.7170   10.4750   22.2910 H   0  0  0  0  0  0  0  0  0  0  0  0
   15.7630    8.9940   22.5490 H   0  0  0  0  0  0  0  0  0  0  0  0
   20.4540    9.5680   23.3360 H   0  0  0  0  0  0  0  0  0  0  0  0
   25.5670   13.4240   17.2260 H   0  0  0  0  0  0  0  0  0  0  0  0
   27.0940   12.7810   17.7890 H   0  0  0  0  0  0  0  0  0  0  0  0
   29.7970   12.8080   19.9260 H   0  0  0  0  0  0  0  0  0  0  0  0
   29.6620   12.8660   21.7000 H   0  0  0  0  0  0  0  0  0  0  0  0
   27.9310   15.8910   20.7570 H   0  0  0  0  0  0  0  0  0  0  0  0
   29.4810   15.3130   20.0990 H   0  0  0  0  0  0  0  0  0  0  0  0
   29.1580   15.1980   21.8450 H   0  0  0  0  0  0  0  0  0  0  0  0
  1  2  1  0  0  0  0
  2  3  1  0  0  0  0
  2  4  1  0  0  0  0
  2  5  1  0  0  0  0
  5  6  1  0  0  0  0
  5 36  1  0  0  0  0
  5 39  1  0  0  0  0
  6  7  1  0  0  0  0
  7  8  1  0  0  0  0
  7 12  2  0  0  0  0
  8  9  2  0  0  0  0
  8 35  1  0  0  0  0
  9 10  1  0  0  0  0
  9 34  1  0  0  0  0
 10 11  2  0  0  0  0
 10 40  1  0  0  0  0
 11 12  1  0  0  0  0
 11 13  1  0  0  0  0
 12 41  1  0  0  0  0
 13 14  1  0  0  0  0
 13 42  1  0  0  0  0
 13 43  1  0  0  0  0
 14 15  1  0  0  0  0
 14 19  1  0  0  0  0
 14 44  1  0  0  0  0
 15 16  1  0  0  0  0
 15 33  1  0  0  0  0
 15 45  1  0  0  0  0
 16 17  1  0  0  0  0
 16 21  1  0  0  0  0
 16 46  1  0  0  0  0
 17 18  1  0  0  0  0
 17 47  1  0  0  0  0
 17 48  1  0  0  0  0
 18 19  1  0  0  0  0
 18 20  2  0  0  0  0
 19 49  1  0  0  0  0
 19 50  1  0  0  0  0
 21 22  1  0  0  0  0
 21 51  1  0  0  0  0
 21 52  1  0  0  0  0
 22 23  1  0  0  0  0
 22 53  1  0  0  0  0
 22 54  1  0  0  0  0
 23 24  1  0  0  0  0
 23 28  2  0  0  0  0
 24 25  2  0  0  0  0
 24 55  1  0  0  0  0
 25 26  1  0  0  0  0
 25 29  1  0  0  0  0
 26 27  2  0  0  0  0
 26 56  1  0  0  0  0
 27 28  1  0  0  0  0
 27 57  1  0  0  0  0
 28 58  1  0  0  0  0
 29 30  1  0  0  0  0
 29 31  1  0  0  0  0
 29 32  1  0  0  0  0
 30 59  1  0  0  0  0
 30 60  1  0  0  0  0
 30 61  1  0  0  0  0
 31 62  1  0  0  0  0
 31 63  1  0  0  0  0
 31 64  1  0  0  0  0
 32 65  1  0  0  0  0
 32 66  1  0  0  0  0
 32 67  1  0  0  0  0
 33 68  1  0  0  0  0
 35 69  1  0  0  0  0
 35 70  1  0  0  0  0
 36 37  1  0  0  0  0
 36 71  1  0  0  0  0
 36 72  1  0  0  0  0
 37 38  1  0  0  0  0
 38 73  1  0  0  0  0
 38 74  1  0  0  0  0
 38 75  1  0  0  0  0
M  CHG  1  21   1
M  END
>  <PARENT_CMPD_ID>
4LXK

>  <STANDARD_TYPE>
IC50

>  <RELATION>
=

>  <STANDARD_VALUE>
0.0040000002

>  <STANDARD_UNITS>
uM

>  <COMPOUND_KEY>
11d

>  <PUBMED_ID>
23981898

>  <JOURNAL>
Bioorg.Med.Chem.Lett.

>  <YEAR>
2013

>  <VOLUME>
23

>  <FIRST_PAGE>
5300

>  <Company>
Novartis

>  <Resolution>
2.05

>  <idx>
15

>  <Model>
Train

>  <target>
8.3979397

>  <des_pred_mlr>
6.9523902

>  <RF_Canvas>
8.055563

>  <DNN_Canvas>
7.9757223

>  <pred_CoMFA>
8.4802999

>  <pred_COMSIA>
7.4137001

>  <pred_abm5>
8.037262

>  <pred_ff8>
8.0855618

>  <pred_gau6>
8.1328516

>  <CID>
BACE_15

>  <active>
1

>  <des_class_bayes>
1

>  <maacs_class_bayes>
1

>  <radial_class_bayes>
1

>  <dend_class_bayes>
1

>  <molprint_class_bayes>
1

>  <RF_canvas>
1

>  <DNN_canvas>
1

$$$$
2QK5_414
  MOE2015           3D

 84 86  0  0  1  0  0  0  0  0999 V2000
   26.8180   15.7430   24.2970 C   0  0  0  0  0  0  0  0  0  0  0  0
   25.5160   16.1490   24.7160 C   0  0  0  0  0  0  0  0  0  0  0  0
   24.3870   15.3200   24.4440 C   0  0  0  0  0  0  0  0  0  0  0  0
   24.5720   14.0750   23.7580 C   0  0  0  0  0  0  0  0  0  0  0  0
   25.8780   13.6720   23.3400 C   0  0  0  0  0  0  0  0  0  0  0  0
   27.0120   14.5050   23.6080 C   0  0  0  0  0  0  0  0  0  0  0  0
   28.3740   14.0900   23.1880 C   0  0  0  0  0  0  0  0  0  0  0  0
   28.6050   13.9120   21.8440 N   0  0  0  0  0  0  0  0  0  0  0  0
   29.2730   13.8980   24.0090 O   0  0  0  0  0  0  0  0  0  0  0  0
   27.6130   14.1220   20.7980 C   0  0  0  0  0  0  0  0  0  0  0  0
   28.1950   15.0610   19.7590 C   0  0  0  0  0  0  0  0  0  0  0  0
   28.6280   16.3850   20.3920 C   0  0  0  0  0  0  0  0  0  0  0  0
   29.9460   13.4980   21.4500 C   0  0  0  0  0  0  0  0  0  0  0  0
   30.0060   12.0120   21.0900 C   0  0  0  0  0  0  0  0  0  0  0  0
   29.0340   11.1500   21.8840 C   0  0  0  0  0  0  0  0  0  0  0  0
   23.4210   13.2160   23.4680 C   0  0  0  0  0  0  0  0  0  0  0  0
   23.7080   11.8960   23.3320 N   0  0  0  0  0  0  0  0  0  0  0  0
   22.2780   13.6440   23.3540 O   0  0  0  0  0  0  0  0  0  0  0  0
   22.5660   11.0160   23.0290 C   0  0  3  0  0  0  0  0  0  0  0  0
   22.0820   10.2270   24.2700 C   0  0  3  0  0  0  0  0  0  0  0  0
   22.9180   10.0730   21.8740 C   0  0  0  0  0  0  0  0  0  0  0  0
   21.1030    9.2770   23.8320 O   0  0  0  0  0  0  0  0  0  0  0  0
   21.4450   11.1730   25.3180 C   0  0  0  0  0  0  0  0  0  0  0  0
   20.7440   10.3690   26.3460 N   0  3  0  0  0  0  0  0  0  0  0  0
   19.7920   11.1730   27.1480 C   0  0  0  0  0  0  0  0  0  0  0  0
   18.6570   11.7530   26.3200 C   0  0  0  0  0  0  0  0  0  0  0  0
   23.5880   10.8540   20.7730 C   0  0  0  0  0  0  0  0  0  0  0  0
   24.9330   10.5670   20.4170 C   0  0  0  0  0  0  0  0  0  0  0  0
   25.5640   11.3080   19.3750 C   0  0  0  0  0  0  0  0  0  0  0  0
   24.8530   12.3310   18.6920 C   0  0  0  0  0  0  0  0  0  0  0  0
   23.5080   12.6180   19.0500 C   0  0  0  0  0  0  0  0  0  0  0  0
   22.8740   11.8800   20.0900 C   0  0  0  0  0  0  0  0  0  0  0  0
   18.3950   13.1570   26.3560 C   0  0  0  0  0  0  0  0  0  0  0  0
   17.3310   13.7060   25.5790 C   0  0  0  0  0  0  0  0  0  0  0  0
   16.5250   12.8530   24.7670 C   0  0  0  0  0  0  0  0  0  0  0  0
   16.7830   11.4490   24.7300 C   0  0  0  0  0  0  0  0  0  0  0  0
   17.8520   10.9000   25.5090 C   0  0  0  0  0  0  0  0  0  0  0  0
   15.9870   10.6390   23.9320 O   0  0  0  0  0  0  0  0  0  0  0  0
   16.1800    9.2550   24.2070 C   0  0  0  0  0  0  0  0  0  0  0  0
   25.3390   17.4300   25.4240 C   0  0  0  0  0  0  0  0  0  0  0  0
   26.8290   11.0410   19.0380 F   0  0  0  0  0  0  0  0  0  0  0  0
   22.8470   13.5820   18.4030 F   0  0  0  0  0  0  0  0  0  0  0  0
   27.6670   16.3780   24.5030 H   0  0  0  0  0  0  0  0  0  0  0  0
   23.3990   15.6290   24.7530 H   0  0  0  0  0  0  0  0  0  0  0  0
   26.0100   12.7350   22.8200 H   0  0  0  0  0  0  0  0  0  0  0  0
   26.7140   14.5630   21.2280 H   0  0  0  0  0  0  0  0  0  0  0  0
   27.3630   13.1690   20.3320 H   0  0  0  0  0  0  0  0  0  0  0  0
   27.4410   15.2610   18.9980 H   0  0  0  0  0  0  0  0  0  0  0  0
   29.0610   14.5870   19.2970 H   0  0  0  0  0  0  0  0  0  0  0  0
   27.7660   16.8650   20.8560 H   0  0  0  0  0  0  0  0  0  0  0  0
   29.0370   17.0390   19.6220 H   0  0  0  0  0  0  0  0  0  0  0  0
   29.3890   16.1940   21.1490 H   0  0  0  0  0  0  0  0  0  0  0  0
   30.6300   13.6870   22.2770 H   0  0  0  0  0  0  0  0  0  0  0  0
   30.2540   14.0830   20.5830 H   0  0  0  0  0  0  0  0  0  0  0  0
   31.0180   11.6530   21.2790 H   0  0  0  0  0  0  0  0  0  0  0  0
   29.7740   11.9050   20.0300 H   0  0  0  0  0  0  0  0  0  0  0  0
   29.2510   11.2440   22.9480 H   0  0  0  0  0  0  0  0  0  0  0  0
   29.1420   10.1080   21.5820 H   0  0  0  0  0  0  0  0  0  0  0  0
   28.0140   11.4800   21.6900 H   0  0  0  0  0  0  0  0  0  0  0  0
   24.6470   11.5390   23.4320 H   0  0  0  0  0  0  0  0  0  0  0  0
   21.7340   11.6510   22.7240 H   0  0  0  0  0  0  0  0  0  0  0  0
   22.9320    9.7300   24.7380 H   0  0  0  0  0  0  0  0  0  0  0  0
   22.0070    9.6130   21.4900 H   0  0  0  0  0  0  0  0  0  0  0  0
   23.5940    9.2970   22.2320 H   0  0  0  0  0  0  0  0  0  0  0  0
   20.3820    9.7670   23.4300 H   0  0  0  0  0  0  0  0  0  0  0  0
   20.7320   11.8340   24.8250 H   0  0  0  0  0  0  0  0  0  0  0  0
   22.2250   11.7690   25.7920 H   0  0  0  0  0  0  0  0  0  0  0  0
   21.4320    9.9680   26.9670 H   0  0  0  0  0  0  0  0  0  0  0  0
   20.2340    9.6290   25.8850 H   0  0  0  0  0  0  0  0  0  0  0  0
   20.3370   11.9940   27.6130 H   0  0  0  0  0  0  0  0  0  0  0  0
   19.3660   10.5350   27.9230 H   0  0  0  0  0  0  0  0  0  0  0  0
   25.4760    9.7900   20.9340 H   0  0  0  0  0  0  0  0  0  0  0  0
   25.3340   12.8890   17.9020 H   0  0  0  0  0  0  0  0  0  0  0  0
   21.8520   12.0980   20.3610 H   0  0  0  0  0  0  0  0  0  0  0  0
   19.0030   13.8040   26.9720 H   0  0  0  0  0  0  0  0  0  0  0  0
   17.1360   14.7680   25.6060 H   0  0  0  0  0  0  0  0  0  0  0  0
   15.7200   13.2690   24.1800 H   0  0  0  0  0  0  0  0  0  0  0  0
   18.0490    9.8380   25.4820 H   0  0  0  0  0  0  0  0  0  0  0  0
   15.5360    8.6620   23.5580 H   0  0  0  0  0  0  0  0  0  0  0  0
   15.9310    9.0530   25.2490 H   0  0  0  0  0  0  0  0  0  0  0  0
   17.2220    8.9900   24.0250 H   0  0  0  0  0  0  0  0  0  0  0  0
   26.3070   17.9180   25.5390 H   0  0  0  0  0  0  0  0  0  0  0  0
   24.9060   17.2450   26.4070 H   0  0  0  0  0  0  0  0  0  0  0  0
   24.6730   18.0740   24.8490 H   0  0  0  0  0  0  0  0  0  0  0  0
  1  2  1  0  0  0  0
  1  6  2  0  0  0  0
  1 43  1  0  0  0  0
  2  3  2  0  0  0  0
  2 40  1  0  0  0  0
  3  4  1  0  0  0  0
  3 44  1  0  0  0  0
  4  5  2  0  0  0  0
  4 16  1  0  0  0  0
  5  6  1  0  0  0  0
  5 45  1  0  0  0  0
  6  7  1  0  0  0  0
  7  8  1  0  0  0  0
  7  9  2  0  0  0  0
  8 10  1  0  0  0  0
  8 13  1  0  0  0  0
 10 11  1  0  0  0  0
 10 46  1  0  0  0  0
 10 47  1  0  0  0  0
 11 12  1  0  0  0  0
 11 48  1  0  0  0  0
 11 49  1  0  0  0  0
 12 50  1  0  0  0  0
 12 51  1  0  0  0  0
 12 52  1  0  0  0  0
 13 14  1  0  0  0  0
 13 53  1  0  0  0  0
 13 54  1  0  0  0  0
 14 15  1  0  0  0  0
 14 55  1  0  0  0  0
 14 56  1  0  0  0  0
 15 57  1  0  0  0  0
 15 58  1  0  0  0  0
 15 59  1  0  0  0  0
 16 17  1  0  0  0  0
 16 18  2  0  0  0  0
 17 19  1  0  0  0  0
 17 60  1  0  0  0  0
 19 20  1  0  0  0  0
 19 21  1  0  0  0  0
 19 61  1  0  0  0  0
 20 22  1  0  0  0  0
 20 23  1  0  0  0  0
 20 62  1  0  0  0  0
 21 27  1  0  0  0  0
 21 63  1  0  0  0  0
 21 64  1  0  0  0  0
 22 65  1  0  0  0  0
 23 24  1  0  0  0  0
 23 66  1  0  0  0  0
 23 67  1  0  0  0  0
 24 25  1  0  0  0  0
 24 68  1  0  0  0  0
 24 69  1  0  0  0  0
 25 26  1  0  0  0  0
 25 70  1  0  0  0  0
 25 71  1  0  0  0  0
 26 33  1  0  0  0  0
 26 37  2  0  0  0  0
 27 28  1  0  0  0  0
 27 32  2  0  0  0  0
 28 29  2  0  0  0  0
 28 72  1  0  0  0  0
 29 30  1  0  0  0  0
 29 41  1  0  0  0  0
 30 31  2  0  0  0  0
 30 73  1  0  0  0  0
 31 32  1  0  0  0  0
 31 42  1  0  0  0  0
 32 74  1  0  0  0  0
 33 34  2  0  0  0  0
 33 75  1  0  0  0  0
 34 35  1  0  0  0  0
 34 76  1  0  0  0  0
 35 36  2  0  0  0  0
 35 77  1  0  0  0  0
 36 37  1  0  0  0  0
 36 38  1  0  0  0  0
 37 78  1  0  0  0  0
 38 39  1  0  0  0  0
 39 79  1  0  0  0  0
 39 80  1  0  0  0  0
 39 81  1  0  0  0  0
 40 82  1  0  0  0  0
 40 83  1  0  0  0  0
 40 84  1  0  0  0  0
M  CHG  1  24   1
M  END
>  <PARENT_CMPD_ID>
2QK5

>  <STANDARD_TYPE>
IC50

>  <RELATION>
=

>  <STANDARD_VALUE>
0.0040000002

>  <STANDARD_UNITS>
uM

>  <COMPOUND_KEY>
1

>  <PUBMED_ID>
18023580

>  <JOURNAL>
Bioorg.Med.Chem.Lett.

>  <YEAR>
2008

>  <VOLUME>
18

>  <FIRST_PAGE>
414

>  <Company>
Schering

>  <Resolution>
2.2

>  <idx>
16

>  <Model>
Train

>  <target>
8.3979397

>  <des_pred_mlr>
7.5047402

>  <RF_Canvas>
6.9950337

>  <DNN_Canvas>
7.2811136

>  <pred_CoMFA>
7.7361002

>  <pred_COMSIA>
7.9222999

>  <pred_abm5>
7.8706589

>  <pred_ff8>
7.1352062

>  <pred_gau6>
8.0079412

>  <CID>
BACE_16

>  <active>
1

>  <des_class_bayes>
1

>  <maacs_class_bayes>
1

>  <radial_class_bayes>
1

>  <dend_class_bayes>
1

>  <molprint_class_bayes>
1

>  <RF_canvas>
1

>  <DNN_canvas>
1

$$$$
2QMD_414
  MOE2015           3D

 88 91  0  0  1  0  0  0  0  0999 V2000
   26.7580   11.0880   19.0280 F   0  0  0  0  0  0  0  0  0  0  0  0
   22.7580   13.5950   18.4740 F   0  0  0  0  0  0  0  0  0  0  0  0
   23.5650   12.0460   23.4230 N   0  0  0  0  0  0  0  0  0  0  0  0
   22.4600   11.1140   23.1060 C   0  0  3  0  0  0  0  0  0  0  0  0
   21.9810   10.2980   24.3310 C   0  0  3  0  0  0  0  0  0  0  0  0
   21.4830   11.1910   25.4800 C   0  0  3  0  0  0  0  0  0  0  0  0
   20.9260    9.4060   23.9260 O   0  0  0  0  0  0  0  0  0  0  0  0
   21.1780   10.3320   26.6430 N   0  3  0  0  0  0  0  0  0  0  0  0
   20.3470   11.1930   27.5080 C   0  0  0  0  0  0  0  0  0  0  0  0
   19.5350   12.0920   26.5660 C   0  0  3  0  0  0  0  0  0  0  0  0
   20.1900   11.9620   25.1840 C   0  0  0  0  0  0  0  0  0  0  0  0
   22.9060   10.1480   21.9910 C   0  0  0  0  0  0  0  0  0  0  0  0
   23.5590   10.9100   20.8590 C   0  0  0  0  0  0  0  0  0  0  0  0
   24.9010   10.6200   20.4730 C   0  0  0  0  0  0  0  0  0  0  0  0
   25.5050   11.3490   19.4010 C   0  0  0  0  0  0  0  0  0  0  0  0
   24.7750   12.3580   18.7250 C   0  0  0  0  0  0  0  0  0  0  0  0
   23.4400   12.6450   19.1120 C   0  0  0  0  0  0  0  0  0  0  0  0
   22.8280   11.9250   20.1760 C   0  0  0  0  0  0  0  0  0  0  0  0
   26.9660   14.5800   23.6280 C   0  0  0  0  0  0  0  0  0  0  0  0
   26.8170   15.8040   24.3460 C   0  0  0  0  0  0  0  0  0  0  0  0
   25.5290   16.2240   24.7730 C   0  0  0  0  0  0  0  0  0  0  0  0
   24.3810   15.4220   24.4930 C   0  0  0  0  0  0  0  0  0  0  0  0
   24.5250   14.1940   23.7860 C   0  0  0  0  0  0  0  0  0  0  0  0
   25.8120   13.7740   23.3540 C   0  0  0  0  0  0  0  0  0  0  0  0
   28.2980   14.1270   23.2110 C   0  0  0  0  0  0  0  0  0  0  0  0
   23.3410   13.3850   23.4920 C   0  0  0  0  0  0  0  0  0  0  0  0
   22.2340   13.8790   23.3190 O   0  0  0  0  0  0  0  0  0  0  0  0
   25.3750   17.4930   25.5100 C   0  0  0  0  0  0  0  0  0  0  0  0
   28.5420   13.8960   21.8940 N   0  0  0  0  0  0  0  0  0  0  0  0
   29.1730   13.9470   24.0410 O   0  0  0  0  0  0  0  0  0  0  0  0
   18.2120   11.5870   26.5390 O   0  0  0  0  0  0  0  0  0  0  0  0
   17.4000   12.4280   25.7350 C   0  0  0  0  0  0  0  0  0  0  0  0
   16.5220   11.5860   24.8210 C   0  0  0  0  0  0  0  0  0  0  0  0
   16.4830   10.1620   24.9370 C   0  0  0  0  0  0  0  0  0  0  0  0
   15.6530    9.3970   24.0690 C   0  0  0  0  0  0  0  0  0  0  0  0
   14.8610   10.0510   23.0840 C   0  0  0  0  0  0  0  0  0  0  0  0
   14.8970   11.4700   22.9670 C   0  0  0  0  0  0  0  0  0  0  0  0
   15.7280   12.2360   23.8370 C   0  0  0  0  0  0  0  0  0  0  0  0
   29.8850   13.4310   21.5610 C   0  0  0  0  0  0  0  0  0  0  0  0
   29.8500   11.9470   21.1230 C   0  0  0  0  0  0  0  0  0  0  0  0
   29.0670   11.0300   22.0860 C   0  0  0  0  0  0  0  0  0  0  0  0
   27.5730   14.0930   20.8210 C   0  0  0  0  0  0  0  0  0  0  0  0
   28.1220   15.1220   19.8330 C   0  0  0  0  0  0  0  0  0  0  0  0
   28.7450   16.3390   20.5330 C   0  0  0  0  0  0  0  0  0  0  0  0
   24.4930   11.6840   23.5890 H   0  0  0  0  0  0  0  0  0  0  0  0
   21.6170   11.7220   22.7790 H   0  0  0  0  0  0  0  0  0  0  0  0
   22.8380    9.7380   24.7050 H   0  0  0  0  0  0  0  0  0  0  0  0
   22.2800   11.9150   25.6480 H   0  0  0  0  0  0  0  0  0  0  0  0
   20.1980    9.9440   23.6060 H   0  0  0  0  0  0  0  0  0  0  0  0
   22.0250   10.0550   27.1180 H   0  0  0  0  0  0  0  0  0  0  0  0
   20.6680    9.5080   26.3580 H   0  0  0  0  0  0  0  0  0  0  0  0
   20.9790   11.7990   28.1570 H   0  0  0  0  0  0  0  0  0  0  0  0
   19.6790   10.5840   28.1170 H   0  0  0  0  0  0  0  0  0  0  0  0
   19.5130   13.1370   26.8770 H   0  0  0  0  0  0  0  0  0  0  0  0
   19.5510   11.4050   24.4990 H   0  0  0  0  0  0  0  0  0  0  0  0
   20.4080   12.9430   24.7610 H   0  0  0  0  0  0  0  0  0  0  0  0
   22.0350    9.6150   21.6090 H   0  0  0  0  0  0  0  0  0  0  0  0
   23.6190    9.4330   22.4000 H   0  0  0  0  0  0  0  0  0  0  0  0
   25.4590    9.8520   20.9880 H   0  0  0  0  0  0  0  0  0  0  0  0
   25.2340   12.9080   17.9170 H   0  0  0  0  0  0  0  0  0  0  0  0
   21.8120   12.1470   20.4650 H   0  0  0  0  0  0  0  0  0  0  0  0
   27.6830   16.4110   24.5650 H   0  0  0  0  0  0  0  0  0  0  0  0
   23.4030   15.7470   24.8170 H   0  0  0  0  0  0  0  0  0  0  0  0
   25.9220   12.8430   22.8170 H   0  0  0  0  0  0  0  0  0  0  0  0
   26.3510   17.9640   25.6300 H   0  0  0  0  0  0  0  0  0  0  0  0
   24.9450   17.2930   26.4920 H   0  0  0  0  0  0  0  0  0  0  0  0
   24.7160   18.1590   24.9530 H   0  0  0  0  0  0  0  0  0  0  0  0
   18.0370   13.0730   25.1300 H   0  0  0  0  0  0  0  0  0  0  0  0
   16.7680   13.0410   26.3780 H   0  0  0  0  0  0  0  0  0  0  0  0
   17.0840    9.6650   25.6840 H   0  0  0  0  0  0  0  0  0  0  0  0
   15.6250    8.3210   24.1580 H   0  0  0  0  0  0  0  0  0  0  0  0
   14.2320    9.4710   22.4250 H   0  0  0  0  0  0  0  0  0  0  0  0
   14.2950   11.9660   22.2200 H   0  0  0  0  0  0  0  0  0  0  0  0
   15.7540   13.3120   23.7480 H   0  0  0  0  0  0  0  0  0  0  0  0
   30.5270   13.5320   22.4360 H   0  0  0  0  0  0  0  0  0  0  0  0
   30.2830   14.0360   20.7470 H   0  0  0  0  0  0  0  0  0  0  0  0
   30.8760   11.5830   21.0600 H   0  0  0  0  0  0  0  0  0  0  0  0
   29.3840   11.8900   20.1390 H   0  0  0  0  0  0  0  0  0  0  0  0
   29.5190   11.0730   23.0770 H   0  0  0  0  0  0  0  0  0  0  0  0
   29.0980   10.0050   21.7170 H   0  0  0  0  0  0  0  0  0  0  0  0
   28.0310   11.3640   22.1440 H   0  0  0  0  0  0  0  0  0  0  0  0
   26.6340   14.4540   21.2400 H   0  0  0  0  0  0  0  0  0  0  0  0
   27.4020   13.1480   20.3060 H   0  0  0  0  0  0  0  0  0  0  0  0
   27.3060   15.4650   19.1970 H   0  0  0  0  0  0  0  0  0  0  0  0
   28.8850   14.6440   19.2190 H   0  0  0  0  0  0  0  0  0  0  0  0
   27.9920   16.8270   21.1510 H   0  0  0  0  0  0  0  0  0  0  0  0
   29.1110   17.0410   19.7840 H   0  0  0  0  0  0  0  0  0  0  0  0
   29.5740   16.0120   21.1610 H   0  0  0  0  0  0  0  0  0  0  0  0
  1 15  1  0  0  0  0
  2 17  1  0  0  0  0
  3  4  1  0  0  0  0
  3 26  1  0  0  0  0
  3 45  1  0  0  0  0
  4  5  1  0  0  0  0
  4 12  1  0  0  0  0
  4 46  1  0  0  0  0
  5  6  1  0  0  0  0
  5  7  1  0  0  0  0
  5 47  1  0  0  0  0
  6  8  1  0  0  0  0
  6 11  1  0  0  0  0
  6 48  1  0  0  0  0
  7 49  1  0  0  0  0
  8  9  1  0  0  0  0
  8 50  1  0  0  0  0
  8 51  1  0  0  0  0
  9 10  1  0  0  0  0
  9 52  1  0  0  0  0
  9 53  1  0  0  0  0
 10 11  1  0  0  0  0
 10 31  1  0  0  0  0
 10 54  1  0  0  0  0
 11 55  1  0  0  0  0
 11 56  1  0  0  0  0
 12 13  1  0  0  0  0
 12 57  1  0  0  0  0
 12 58  1  0  0  0  0
 13 14  1  0  0  0  0
 13 18  2  0  0  0  0
 14 15  2  0  0  0  0
 14 59  1  0  0  0  0
 15 16  1  0  0  0  0
 16 17  2  0  0  0  0
 16 60  1  0  0  0  0
 17 18  1  0  0  0  0
 18 61  1  0  0  0  0
 19 20  1  0  0  0  0
 19 24  2  0  0  0  0
 19 25  1  0  0  0  0
 20 21  2  0  0  0  0
 20 62  1  0  0  0  0
 21 22  1  0  0  0  0
 21 28  1  0  0  0  0
 22 23  2  0  0  0  0
 22 63  1  0  0  0  0
 23 24  1  0  0  0  0
 23 26  1  0  0  0  0
 24 64  1  0  0  0  0
 25 29  1  0  0  0  0
 25 30  2  0  0  0  0
 26 27  2  0  0  0  0
 28 65  1  0  0  0  0
 28 66  1  0  0  0  0
 28 67  1  0  0  0  0
 29 39  1  0  0  0  0
 29 42  1  0  0  0  0
 31 32  1  0  0  0  0
 32 33  1  0  0  0  0
 32 68  1  0  0  0  0
 32 69  1  0  0  0  0
 33 34  1  0  0  0  0
 33 38  2  0  0  0  0
 34 35  2  0  0  0  0
 34 70  1  0  0  0  0
 35 36  1  0  0  0  0
 35 71  1  0  0  0  0
 36 37  2  0  0  0  0
 36 72  1  0  0  0  0
 37 38  1  0  0  0  0
 37 73  1  0  0  0  0
 38 74  1  0  0  0  0
 39 40  1  0  0  0  0
 39 75  1  0  0  0  0
 39 76  1  0  0  0  0
 40 41  1  0  0  0  0
 40 77  1  0  0  0  0
 40 78  1  0  0  0  0
 41 79  1  0  0  0  0
 41 80  1  0  0  0  0
 41 81  1  0  0  0  0
 42 43  1  0  0  0  0
 42 82  1  0  0  0  0
 42 83  1  0  0  0  0
 43 44  1  0  0  0  0
 43 84  1  0  0  0  0
 43 85  1  0  0  0  0
 44 86  1  0  0  0  0
 44 87  1  0  0  0  0
 44 88  1  0  0  0  0
M  CHG  1   8   1
M  END
>  <PARENT_CMPD_ID>
2QMD

>  <STANDARD_TYPE>
IC50

>  <RELATION>
=

>  <STANDARD_VALUE>
0.0049999999

>  <STANDARD_UNITS>
uM

>  <COMPOUND_KEY>
2e

>  <PUBMED_ID>
18023580

>  <JOURNAL>
Bioorg.Med.Chem.Lett.

>  <YEAR>
2008

>  <VOLUME>
18

>  <FIRST_PAGE>
414

>  <Company>
Schering

>  <Resolution>
1.65

>  <idx>
17

>  <Model>
Train

>  <target>
8.3010302

>  <des_pred_mlr>
7.4365101

>  <RF_Canvas>
8.1672201

>  <DNN_Canvas>
7.6278558

>  <pred_CoMFA>
8.2903996

>  <pred_COMSIA>
7.8196998

>  <pred_abm5>
8.5193596

>  <pred_ff8>
7.1183882

>  <pred_gau6>
8.2581329

>  <CID>
BACE_17

>  <active>
1

>  <des_class_bayes>
1

>  <maacs_class_bayes>
1

>  <radial_class_bayes>
1

>  <dend_class_bayes>
1

>  <molprint_class_bayes>
1

>  <RF_canvas>
1

>  <DNN_canvas>
1

$$$$
2IQG_776
  MOE2015           3D

 80 82  0  0  1  0  0  0  0  0999 V2000
   23.6720   11.7610   23.3800 N   0  0  0  0  0  0  0  0  0  0  0  0
   24.7920   13.9100   23.8480 C   0  0  0  0  0  0  0  0  0  0  0  0
   26.0350   13.3890   23.3840 C   0  0  0  0  0  0  0  0  0  0  0  0
   28.5650   13.5400   23.1560 C   0  0  0  0  0  0  0  0  0  0  0  0
   25.9310   17.1430   25.6040 C   0  0  0  0  0  0  0  0  0  0  0  0
   23.5390   13.1450   23.5420 C   0  0  0  0  0  0  0  0  0  0  0  0
   28.0390   13.9580   20.7090 C   0  0  0  0  0  0  0  0  0  0  0  0
   28.8500   15.0640   20.0000 C   0  0  0  0  0  0  0  0  0  0  0  0
   22.5790   10.8180   23.0130 C   0  0  3  0  0  0  0  0  0  0  0  0
   23.1970    9.9260   21.9120 C   0  0  0  0  0  0  0  0  0  0  0  0
   18.7250   11.5870   26.3750 C   0  0  0  0  0  0  0  0  0  0  0  0
   18.3000   12.9420   26.3410 C   0  0  0  0  0  0  0  0  0  0  0  0
   17.1540   13.3170   25.5860 C   0  0  0  0  0  0  0  0  0  0  0  0
   16.8230   10.9800   24.8710 C   0  0  0  0  0  0  0  0  0  0  0  0
   23.3540   12.6310   19.1280 C   0  0  0  0  0  0  0  0  0  0  0  0
   23.6940   10.7880   20.7540 C   0  0  0  0  0  0  0  0  0  0  0  0
   27.2390   14.0900   23.6410 C   0  0  0  0  0  0  0  0  0  0  0  0
   27.2010   15.3150   24.3670 C   0  0  0  0  0  0  0  0  0  0  0  0
   25.9640   15.8430   24.8340 C   0  0  0  0  0  0  0  0  0  0  0  0
   24.7590   15.1330   24.5700 C   0  0  0  0  0  0  0  0  0  0  0  0
   29.4200   13.3330   24.0020 O   0  0  0  0  0  0  0  0  0  0  0  0
   28.8290   13.2810   21.7610 N   0  0  0  0  0  0  0  0  0  0  0  0
   29.9390   12.3620   21.3850 C   0  0  0  0  0  0  0  0  0  0  0  0
   29.7500   10.9190   21.8930 C   0  0  0  0  0  0  0  0  0  0  0  0
   28.7600   10.1280   21.0310 C   0  0  0  0  0  0  0  0  0  0  0  0
   29.1270   16.2640   20.9190 C   0  0  0  0  0  0  0  0  0  0  0  0
   22.4630   13.7130   23.4010 O   0  0  0  0  0  0  0  0  0  0  0  0
   22.0320   10.0430   24.2270 C   0  0  3  0  0  0  0  0  0  0  0  0
   21.3510   11.0020   25.1940 C   0  0  0  0  0  0  0  0  0  0  0  0
   20.7690   10.2790   26.3140 N   0  3  0  0  0  0  0  0  0  0  0  0
   19.9790   11.1580   27.1690 C   0  0  0  0  0  0  0  0  0  0  0  0
   16.4170   12.3410   24.8530 C   0  0  0  0  0  0  0  0  0  0  0  0
   17.9710   10.6070   25.6300 C   0  0  0  0  0  0  0  0  0  0  0  0
   15.7450    9.5390   23.7810 I   0  0  0  0  0  0  0  0  0  0  0  0
   22.8770   11.8270   20.1950 C   0  0  0  0  0  0  0  0  0  0  0  0
   24.9850   10.5800   20.2210 C   0  0  0  0  0  0  0  0  0  0  0  0
   25.4640   11.3830   19.1510 C   0  0  0  0  0  0  0  0  0  0  0  0
   24.6520   12.4090   18.6030 C   0  0  0  0  0  0  0  0  0  0  0  0
   22.5900   13.5820   18.6320 F   0  0  0  0  0  0  0  0  0  0  0  0
   26.6630   11.1730   18.6750 F   0  0  0  0  0  0  0  0  0  0  0  0
   21.0400    9.1620   23.7920 O   0  0  0  0  0  0  0  0  0  0  0  0
   24.5910   11.3670   23.5250 H   0  0  0  0  0  0  0  0  0  0  0  0
   26.0590   12.4590   22.8360 H   0  0  0  0  0  0  0  0  0  0  0  0
   26.9440   17.5320   25.7040 H   0  0  0  0  0  0  0  0  0  0  0  0
   25.5100   16.9680   26.5940 H   0  0  0  0  0  0  0  0  0  0  0  0
   25.3150   17.8660   25.0700 H   0  0  0  0  0  0  0  0  0  0  0  0
   27.7300   13.2190   19.9700 H   0  0  0  0  0  0  0  0  0  0  0  0
   27.1560   14.4060   21.1650 H   0  0  0  0  0  0  0  0  0  0  0  0
   28.2880   15.4090   19.1320 H   0  0  0  0  0  0  0  0  0  0  0  0
   29.8020   14.6460   19.6730 H   0  0  0  0  0  0  0  0  0  0  0  0
   21.6890   11.3290   22.6450 H   0  0  0  0  0  0  0  0  0  0  0  0
   22.4420    9.2310   21.5450 H   0  0  0  0  0  0  0  0  0  0  0  0
   24.0340    9.3660   22.3290 H   0  0  0  0  0  0  0  0  0  0  0  0
   18.8500   13.6910   26.8910 H   0  0  0  0  0  0  0  0  0  0  0  0
   16.8390   14.3500   25.5680 H   0  0  0  0  0  0  0  0  0  0  0  0
   28.1190   15.8480   24.5650 H   0  0  0  0  0  0  0  0  0  0  0  0
   23.8160   15.5260   24.9200 H   0  0  0  0  0  0  0  0  0  0  0  0
   30.8660   12.7550   21.8020 H   0  0  0  0  0  0  0  0  0  0  0  0
   30.0110   12.3370   20.2980 H   0  0  0  0  0  0  0  0  0  0  0  0
   29.3760   10.9530   22.9160 H   0  0  0  0  0  0  0  0  0  0  0  0
   30.7140   10.4110   21.8760 H   0  0  0  0  0  0  0  0  0  0  0  0
   27.7910   10.6270   21.0410 H   0  0  0  0  0  0  0  0  0  0  0  0
   28.6540    9.1200   21.4320 H   0  0  0  0  0  0  0  0  0  0  0  0
   29.1310   10.0750   20.0070 H   0  0  0  0  0  0  0  0  0  0  0  0
   28.1820   16.6920   21.2530 H   0  0  0  0  0  0  0  0  0  0  0  0
   29.6930   17.0180   20.3720 H   0  0  0  0  0  0  0  0  0  0  0  0
   29.7020   15.9340   21.7840 H   0  0  0  0  0  0  0  0  0  0  0  0
   22.8620    9.5240   24.7070 H   0  0  0  0  0  0  0  0  0  0  0  0
   20.5630   11.5400   24.6680 H   0  0  0  0  0  0  0  0  0  0  0  0
   22.0870   11.7120   25.5710 H   0  0  0  0  0  0  0  0  0  0  0  0
   21.5120    9.8700   26.8620 H   0  0  0  0  0  0  0  0  0  0  0  0
   20.1720    9.5470   25.9570 H   0  0  0  0  0  0  0  0  0  0  0  0
   19.6820   10.6270   28.0730 H   0  0  0  0  0  0  0  0  0  0  0  0
   20.5650   12.0360   27.4400 H   0  0  0  0  0  0  0  0  0  0  0  0
   15.5490   12.6370   24.2830 H   0  0  0  0  0  0  0  0  0  0  0  0
   18.2820    9.5730   25.6480 H   0  0  0  0  0  0  0  0  0  0  0  0
   21.8870   11.9990   20.5910 H   0  0  0  0  0  0  0  0  0  0  0  0
   25.6140    9.8030   20.6300 H   0  0  0  0  0  0  0  0  0  0  0  0
   25.0210   13.0180   17.7900 H   0  0  0  0  0  0  0  0  0  0  0  0
   20.3470    9.6850   23.3830 H   0  0  0  0  0  0  0  0  0  0  0  0
  1  6  1  0  0  0  0
  1  9  1  0  0  0  0
  1 42  1  0  0  0  0
  2  3  1  0  0  0  0
  2  6  1  0  0  0  0
  2 20  2  0  0  0  0
  3 17  2  0  0  0  0
  3 43  1  0  0  0  0
  4 17  1  0  0  0  0
  4 21  2  0  0  0  0
  4 22  1  0  0  0  0
  5 19  1  0  0  0  0
  5 44  1  0  0  0  0
  5 45  1  0  0  0  0
  5 46  1  0  0  0  0
  6 27  2  0  0  0  0
  7  8  1  0  0  0  0
  7 22  1  0  0  0  0
  7 47  1  0  0  0  0
  7 48  1  0  0  0  0
  8 26  1  0  0  0  0
  8 49  1  0  0  0  0
  8 50  1  0  0  0  0
  9 10  1  0  0  0  0
  9 28  1  0  0  0  0
  9 51  1  0  0  0  0
 10 16  1  0  0  0  0
 10 52  1  0  0  0  0
 10 53  1  0  0  0  0
 11 12  1  0  0  0  0
 11 31  1  0  0  0  0
 11 33  2  0  0  0  0
 12 13  2  0  0  0  0
 12 54  1  0  0  0  0
 13 32  1  0  0  0  0
 13 55  1  0  0  0  0
 14 32  2  0  0  0  0
 14 33  1  0  0  0  0
 14 34  1  0  0  0  0
 15 35  2  0  0  0  0
 15 38  1  0  0  0  0
 15 39  1  0  0  0  0
 16 35  1  0  0  0  0
 16 36  2  0  0  0  0
 17 18  1  0  0  0  0
 18 19  2  0  0  0  0
 18 56  1  0  0  0  0
 19 20  1  0  0  0  0
 20 57  1  0  0  0  0
 22 23  1  0  0  0  0
 23 24  1  0  0  0  0
 23 58  1  0  0  0  0
 23 59  1  0  0  0  0
 24 25  1  0  0  0  0
 24 60  1  0  0  0  0
 24 61  1  0  0  0  0
 25 62  1  0  0  0  0
 25 63  1  0  0  0  0
 25 64  1  0  0  0  0
 26 65  1  0  0  0  0
 26 66  1  0  0  0  0
 26 67  1  0  0  0  0
 28 29  1  0  0  0  0
 28 41  1  0  0  0  0
 28 68  1  0  0  0  0
 29 30  1  0  0  0  0
 29 69  1  0  0  0  0
 29 70  1  0  0  0  0
 30 31  1  0  0  0  0
 30 71  1  0  0  0  0
 30 72  1  0  0  0  0
 31 73  1  0  0  0  0
 31 74  1  0  0  0  0
 32 75  1  0  0  0  0
 33 76  1  0  0  0  0
 35 77  1  0  0  0  0
 36 37  1  0  0  0  0
 36 78  1  0  0  0  0
 37 38  2  0  0  0  0
 37 40  1  0  0  0  0
 38 79  1  0  0  0  0
 41 80  1  0  0  0  0
M  CHG  1  30   1
M  END
>  <PARENT_CMPD_ID>
2IQG

>  <STANDARD_TYPE>
IC50

>  <RELATION>
=

>  <STANDARD_VALUE>
0.0049999999

>  <STANDARD_UNITS>
uM

>  <COMPOUND_KEY>
6b

>  <PUBMED_ID>
17300163

>  <JOURNAL>
J.Med.Chem.

>  <YEAR>
2007

>  <VOLUME>
50

>  <FIRST_PAGE>
776

>  <Company>
Elan

>  <Resolution>
1.7

>  <idx>
18

>  <Model>
Train

>  <target>
8.3010302

>  <des_pred_mlr>
7.70469

>  <RF_Canvas>
7.788806

>  <DNN_Canvas>
7.7961626

>  <pred_CoMFA>
7.8045001

>  <pred_COMSIA>
7.5054998

>  <pred_abm5>
8.1128731

>  <pred_ff8>
7.2185388

>  <pred_gau6>
7.4687028

>  <CID>
BACE_18

>  <active>
1

>  <des_class_bayes>
1

>  <maacs_class_bayes>
1

>  <radial_class_bayes>
1

>  <dend_class_bayes>
1

>  <molprint_class_bayes>
1

>  <RF_canvas>
1

>  <DNN_canvas>
1

$$$$
3CID_3236
  MOE2015           3D

 85 88  0  0  1  0  0  0  0  0999 V2000
   26.7210   11.1150   19.1090 F   0  0  0  0  0  0  0  0  0  0  0  0
   22.8110   13.7250   18.4270 F   0  0  0  0  0  0  0  0  0  0  0  0
   23.5860   12.0380   23.4350 N   0  0  0  0  0  0  0  0  0  0  0  0
   22.4360   11.1660   23.1180 C   0  0  3  0  0  0  0  0  0  0  0  0
   21.9720   10.3150   24.3440 C   0  0  3  0  0  0  0  0  0  0  0  0
   20.9460    9.4020   23.9220 O   0  0  0  0  0  0  0  0  0  0  0  0
   21.4180   11.2020   25.4820 C   0  0  3  0  0  0  0  0  0  0  0  0
   21.1810   10.3680   26.6870 N   0  3  0  0  0  0  0  0  0  0  0  0
   19.8790   10.8400   27.2320 C   0  0  0  0  0  0  0  0  0  0  0  0
   19.2730   11.6350   26.1690 N   0  0  0  0  0  0  0  0  0  0  0  0
   20.0930   11.8710   25.1450 C   0  0  0  0  0  0  0  0  0  0  0  0
   22.7690   10.2550   21.9380 C   0  0  0  0  0  0  0  0  0  0  0  0
   23.3560   13.3670   23.5420 C   0  0  0  0  0  0  0  0  0  0  0  0
   19.8530   12.5080   24.1200 O   0  0  0  0  0  0  0  0  0  0  0  0
   17.8860   12.0880   26.3020 C   0  0  0  0  0  0  0  0  0  0  0  0
   16.9540   11.4780   25.2830 C   0  0  0  0  0  0  0  0  0  0  0  0
   16.2040   12.3250   24.4140 C   0  0  0  0  0  0  0  0  0  0  0  0
   15.3190   11.7560   23.4490 C   0  0  0  0  0  0  0  0  0  0  0  0
   15.1820   10.3410   23.3560 C   0  0  0  0  0  0  0  0  0  0  0  0
   15.9300    9.4920   24.2250 C   0  0  0  0  0  0  0  0  0  0  0  0
   16.8160   10.0610   25.1880 C   0  0  0  0  0  0  0  0  0  0  0  0
   23.4650   11.0170   20.8320 C   0  0  0  0  0  0  0  0  0  0  0  0
   22.7770   12.0500   20.1320 C   0  0  0  0  0  0  0  0  0  0  0  0
   23.4400   12.7570   19.0900 C   0  0  0  0  0  0  0  0  0  0  0  0
   24.7790   12.4370   18.7450 C   0  0  0  0  0  0  0  0  0  0  0  0
   25.4620   11.4080   19.4410 C   0  0  0  0  0  0  0  0  0  0  0  0
   24.8100   10.6950   20.4880 C   0  0  0  0  0  0  0  0  0  0  0  0
   22.2360   13.8460   23.3880 O   0  0  0  0  0  0  0  0  0  0  0  0
   24.5360   14.1840   23.8470 C   0  0  0  0  0  0  0  0  0  0  0  0
   25.8260   13.7450   23.4390 C   0  0  0  0  0  0  0  0  0  0  0  0
   26.9760   14.5480   23.7220 C   0  0  0  0  0  0  0  0  0  0  0  0
   26.8230   15.7880   24.4230 C   0  0  0  0  0  0  0  0  0  0  0  0
   25.5280   16.2290   24.8310 C   0  0  0  0  0  0  0  0  0  0  0  0
   24.3820   15.4300   24.5430 C   0  0  0  0  0  0  0  0  0  0  0  0
   25.3720   17.5070   25.5470 C   0  0  0  0  0  0  0  0  0  0  0  0
   28.3200   14.0930   23.3130 C   0  0  0  0  0  0  0  0  0  0  0  0
   29.2030   13.8860   24.1400 O   0  0  0  0  0  0  0  0  0  0  0  0
   28.5570   13.9000   21.9730 N   0  0  0  0  0  0  0  0  0  0  0  0
   29.8880   13.4470   21.6050 C   0  0  0  0  0  0  0  0  0  0  0  0
   29.8670   11.9730   21.1620 C   0  0  0  0  0  0  0  0  0  0  0  0
   29.1390   11.0220   22.1560 C   0  0  0  0  0  0  0  0  0  0  0  0
   27.5780   14.1270   20.9160 C   0  0  0  0  0  0  0  0  0  0  0  0
   28.1690   15.0710   19.8790 C   0  0  0  0  0  0  0  0  0  0  0  0
   28.7300   16.3570   20.5330 C   0  0  0  0  0  0  0  0  0  0  0  0
   24.5110   11.6550   23.5670 H   0  0  0  0  0  0  0  0  0  0  0  0
   21.6060   11.8200   22.8490 H   0  0  0  0  0  0  0  0  0  0  0  0
   22.8390    9.7750   24.7260 H   0  0  0  0  0  0  0  0  0  0  0  0
   20.2090    9.9240   23.5960 H   0  0  0  0  0  0  0  0  0  0  0  0
   22.1660   11.9780   25.6450 H   0  0  0  0  0  0  0  0  0  0  0  0
   21.9190   10.5030   27.3630 H   0  0  0  0  0  0  0  0  0  0  0  0
   21.1280    9.3910   26.4380 H   0  0  0  0  0  0  0  0  0  0  0  0
   20.0380   11.4510   28.1210 H   0  0  0  0  0  0  0  0  0  0  0  0
   19.2420    9.9920   27.4830 H   0  0  0  0  0  0  0  0  0  0  0  0
   21.8450    9.8280   21.5480 H   0  0  0  0  0  0  0  0  0  0  0  0
   23.4230    9.4530   22.2820 H   0  0  0  0  0  0  0  0  0  0  0  0
   17.8640   13.1710   26.1850 H   0  0  0  0  0  0  0  0  0  0  0  0
   17.5300   11.8230   27.2980 H   0  0  0  0  0  0  0  0  0  0  0  0
   16.3060   13.3980   24.4860 H   0  0  0  0  0  0  0  0  0  0  0  0
   14.7540   12.3980   22.7900 H   0  0  0  0  0  0  0  0  0  0  0  0
   14.5110    9.9110   22.6270 H   0  0  0  0  0  0  0  0  0  0  0  0
   15.8260    8.4190   24.1540 H   0  0  0  0  0  0  0  0  0  0  0  0
   17.3830    9.4180   25.8460 H   0  0  0  0  0  0  0  0  0  0  0  0
   21.7580   12.2950   20.3910 H   0  0  0  0  0  0  0  0  0  0  0  0
   25.2770   12.9770   17.9530 H   0  0  0  0  0  0  0  0  0  0  0  0
   25.3330    9.9130   21.0190 H   0  0  0  0  0  0  0  0  0  0  0  0
   25.9370   12.8070   22.9160 H   0  0  0  0  0  0  0  0  0  0  0  0
   27.6910   16.3920   24.6440 H   0  0  0  0  0  0  0  0  0  0  0  0
   23.4010   15.7620   24.8480 H   0  0  0  0  0  0  0  0  0  0  0  0
   26.3490   17.9730   25.6750 H   0  0  0  0  0  0  0  0  0  0  0  0
   24.9260   17.3240   26.5240 H   0  0  0  0  0  0  0  0  0  0  0  0
   24.7260   18.1700   24.9710 H   0  0  0  0  0  0  0  0  0  0  0  0
   30.5500   13.5510   22.4640 H   0  0  0  0  0  0  0  0  0  0  0  0
   30.2590   14.0610   20.7840 H   0  0  0  0  0  0  0  0  0  0  0  0
   30.8970   11.6330   21.0550 H   0  0  0  0  0  0  0  0  0  0  0  0
   29.3620   11.9120   20.1980 H   0  0  0  0  0  0  0  0  0  0  0  0
   29.6300   11.0680   23.1280 H   0  0  0  0  0  0  0  0  0  0  0  0
   29.1790   10.0010   21.7770 H   0  0  0  0  0  0  0  0  0  0  0  0
   28.0990   11.3310   22.2590 H   0  0  0  0  0  0  0  0  0  0  0  0
   26.6780   14.5710   21.3420 H   0  0  0  0  0  0  0  0  0  0  0  0
   27.3260   13.1780   20.4430 H   0  0  0  0  0  0  0  0  0  0  0  0
   27.3910   15.3470   19.1670 H   0  0  0  0  0  0  0  0  0  0  0  0
   28.9760   14.5600   19.3550 H   0  0  0  0  0  0  0  0  0  0  0  0
   27.9290   16.8760   21.0600 H   0  0  0  0  0  0  0  0  0  0  0  0
   29.1380   17.0090   19.7610 H   0  0  0  0  0  0  0  0  0  0  0  0
   29.5170   16.0920   21.2390 H   0  0  0  0  0  0  0  0  0  0  0  0
  1 26  1  0  0  0  0
  2 24  1  0  0  0  0
  3  4  1  0  0  0  0
  3 13  1  0  0  0  0
  3 45  1  0  0  0  0
  4  5  1  0  0  0  0
  4 12  1  0  0  0  0
  4 46  1  0  0  0  0
  5  6  1  0  0  0  0
  5  7  1  0  0  0  0
  5 47  1  0  0  0  0
  6 48  1  0  0  0  0
  7  8  1  0  0  0  0
  7 11  1  0  0  0  0
  7 49  1  0  0  0  0
  8  9  1  0  0  0  0
  8 50  1  0  0  0  0
  8 51  1  0  0  0  0
  9 10  1  0  0  0  0
  9 52  1  0  0  0  0
  9 53  1  0  0  0  0
 10 11  1  0  0  0  0
 10 15  1  0  0  0  0
 11 14  2  0  0  0  0
 12 22  1  0  0  0  0
 12 54  1  0  0  0  0
 12 55  1  0  0  0  0
 13 28  2  0  0  0  0
 13 29  1  0  0  0  0
 15 16  1  0  0  0  0
 15 56  1  0  0  0  0
 15 57  1  0  0  0  0
 16 17  1  0  0  0  0
 16 21  2  0  0  0  0
 17 18  2  0  0  0  0
 17 58  1  0  0  0  0
 18 19  1  0  0  0  0
 18 59  1  0  0  0  0
 19 20  2  0  0  0  0
 19 60  1  0  0  0  0
 20 21  1  0  0  0  0
 20 61  1  0  0  0  0
 21 62  1  0  0  0  0
 22 23  1  0  0  0  0
 22 27  2  0  0  0  0
 23 24  2  0  0  0  0
 23 63  1  0  0  0  0
 24 25  1  0  0  0  0
 25 26  2  0  0  0  0
 25 64  1  0  0  0  0
 26 27  1  0  0  0  0
 27 65  1  0  0  0  0
 29 30  1  0  0  0  0
 29 34  2  0  0  0  0
 30 31  2  0  0  0  0
 30 66  1  0  0  0  0
 31 32  1  0  0  0  0
 31 36  1  0  0  0  0
 32 33  2  0  0  0  0
 32 67  1  0  0  0  0
 33 34  1  0  0  0  0
 33 35  1  0  0  0  0
 34 68  1  0  0  0  0
 35 69  1  0  0  0  0
 35 70  1  0  0  0  0
 35 71  1  0  0  0  0
 36 37  2  0  0  0  0
 36 38  1  0  0  0  0
 38 39  1  0  0  0  0
 38 42  1  0  0  0  0
 39 40  1  0  0  0  0
 39 72  1  0  0  0  0
 39 73  1  0  0  0  0
 40 41  1  0  0  0  0
 40 74  1  0  0  0  0
 40 75  1  0  0  0  0
 41 76  1  0  0  0  0
 41 77  1  0  0  0  0
 41 78  1  0  0  0  0
 42 43  1  0  0  0  0
 42 79  1  0  0  0  0
 42 80  1  0  0  0  0
 43 44  1  0  0  0  0
 43 81  1  0  0  0  0
 43 82  1  0  0  0  0
 44 83  1  0  0  0  0
 44 84  1  0  0  0  0
 44 85  1  0  0  0  0
M  CHG  1   8   1
M  END
>  <PARENT_CMPD_ID>
3CID

>  <STANDARD_TYPE>
IC50

>  <RELATION>
=

>  <STANDARD_VALUE>
0.0049999999

>  <STANDARD_UNITS>
uM

>  <COMPOUND_KEY>
3a

>  <PUBMED_ID>
18468890

>  <JOURNAL>
Bioorg.Med.Chem.Lett.

>  <YEAR>
2008

>  <VOLUME>
18

>  <FIRST_PAGE>
3236

>  <Company>
Schering

>  <Resolution>
1.8

>  <idx>
19

>  <Model>
Train

>  <target>
8.3010302

>  <des_pred_mlr>
7.5805101

>  <RF_Canvas>
8.2622099

>  <DNN_Canvas>
7.5766377

>  <pred_CoMFA>
8.5277004

>  <pred_COMSIA>
7.8144002

>  <pred_abm5>
8.2306089

>  <pred_ff8>
7.8484168

>  <pred_gau6>
8.000206

>  <CID>
BACE_19

>  <active>
1

>  <des_class_bayes>
1

>  <maacs_class_bayes>
1

>  <radial_class_bayes>
1

>  <dend_class_bayes>
1

>  <molprint_class_bayes>
1

>  <RF_canvas>
1

>  <DNN_canvas>
1

$$$$
3LPI_2837
  MOE2015           3D

 89 92  0  0  1  0  0  0  0  0999 V2000
   26.7700   15.8520   24.2980 C   0  0  0  0  0  0  0  0  0  0  0  0
   26.7550   11.1800   18.9370 F   0  0  0  0  0  0  0  0  0  0  0  0
   23.4700   12.0750   23.4610 N   0  0  0  0  0  0  0  0  0  0  0  0
   18.0830   14.0520   24.3180 O   0  0  0  0  0  0  0  0  0  0  0  0
   17.6740   13.2200   25.4110 S   0  0  0  0  0  0  0  0  0  0  0  0
   26.9260   14.6160   23.6070 C   0  0  0  0  0  0  0  0  0  0  0  0
   22.7660   13.6670   18.3910 F   0  0  0  0  0  0  0  0  0  0  0  0
   28.6170   13.8630   21.8510 N   0  0  0  0  0  0  0  0  0  0  0  0
   17.1060   13.8240   26.5840 O   0  0  0  0  0  0  0  0  0  0  0  0
   25.7780   13.8170   23.3410 C   0  0  0  0  0  0  0  0  0  0  0  0
   19.1400   12.4340   25.9640 N   0  0  0  0  0  0  0  0  0  0  0  0
   29.1500   14.1230   24.0740 O   0  0  0  0  0  0  0  0  0  0  0  0
   24.4880   14.2450   23.7550 C   0  0  0  0  0  0  0  0  0  0  0  0
   20.9910   10.2230   26.5200 N   0  3  0  0  0  0  0  0  0  0  0  0
   22.1710   13.9340   23.3050 O   0  0  0  0  0  0  0  0  0  0  0  0
   24.3520   15.4860   24.4450 C   0  0  0  0  0  0  0  0  0  0  0  0
   21.0160    9.3180   23.8370 O   0  0  0  0  0  0  0  0  0  0  0  0
   25.4900   16.2960   24.7210 C   0  0  0  0  0  0  0  0  0  0  0  0
   23.2780   13.4380   23.4890 C   0  0  0  0  0  0  0  0  0  0  0  0
   28.2930   14.1910   23.1930 C   0  0  0  0  0  0  0  0  0  0  0  0
   29.8820   13.0950   21.6330 C   0  0  0  0  0  0  0  0  0  0  0  0
   27.8170   14.2320   20.6370 C   0  0  0  0  0  0  0  0  0  0  0  0
   28.4960   15.3070   19.7700 C   0  0  0  0  0  0  0  0  0  0  0  0
   28.6050   16.6630   20.4770 C   0  0  0  0  0  0  0  0  0  0  0  0
   29.6560   11.6710   21.0650 C   0  0  0  0  0  0  0  0  0  0  0  0
   28.8190   10.7650   21.9800 C   0  0  0  0  0  0  0  0  0  0  0  0
   25.3490   17.6120   25.4520 C   0  0  0  0  0  0  0  0  0  0  0  0
   22.4220   11.1230   23.0430 C   0  0  3  0  0  0  0  0  0  0  0  0
   21.9450   10.2990   24.2660 C   0  0  3  0  0  0  0  0  0  0  0  0
   21.2660   11.1280   25.3780 C   0  0  3  0  0  0  0  0  0  0  0  0
   22.9920   10.2170   21.9110 C   0  0  0  0  0  0  0  0  0  0  0  0
   23.6100   10.9950   20.7660 C   0  0  0  0  0  0  0  0  0  0  0  0
   22.8710   12.0100   20.0800 C   0  0  0  0  0  0  0  0  0  0  0  0
   23.4720   12.7220   19.0190 C   0  0  0  0  0  0  0  0  0  0  0  0
   24.7980   12.4600   18.6040 C   0  0  0  0  0  0  0  0  0  0  0  0
   25.5080   11.4540   19.2950 C   0  0  0  0  0  0  0  0  0  0  0  0
   24.9420   10.7220   20.3640 C   0  0  0  0  0  0  0  0  0  0  0  0
   19.9430   11.7980   24.9030 C   0  0  0  0  0  0  0  0  0  0  0  0
   19.0100   11.5780   27.1850 C   0  0  0  0  0  0  0  0  0  0  0  0
   20.3200   10.9140   27.6420 C   0  0  0  0  0  0  0  0  0  0  0  0
   16.6080   11.9120   24.8280 C   0  0  0  0  0  0  0  0  0  0  0  0
   16.5720   11.6040   23.4470 C   0  0  0  0  0  0  0  0  0  0  0  0
   15.7300   10.5640   22.9820 C   0  0  0  0  0  0  0  0  0  0  0  0
   14.9290    9.8330   23.8960 C   0  0  0  0  0  0  0  0  0  0  0  0
   14.9660   10.1410   25.2740 C   0  0  0  0  0  0  0  0  0  0  0  0
   15.8060   11.1830   25.7440 C   0  0  0  0  0  0  0  0  0  0  0  0
   27.6390   16.4600   24.5030 H   0  0  0  0  0  0  0  0  0  0  0  0
   24.3690   11.7090   23.7390 H   0  0  0  0  0  0  0  0  0  0  0  0
   25.8890   12.8770   22.8200 H   0  0  0  0  0  0  0  0  0  0  0  0
   21.8670    9.8440   26.8510 H   0  0  0  0  0  0  0  0  0  0  0  0
   20.3970    9.4710   26.2010 H   0  0  0  0  0  0  0  0  0  0  0  0
   23.3740   15.8150   24.7620 H   0  0  0  0  0  0  0  0  0  0  0  0
   21.4370    8.8020   23.1460 H   0  0  0  0  0  0  0  0  0  0  0  0
   30.4000   13.0060   22.5880 H   0  0  0  0  0  0  0  0  0  0  0  0
   30.5050   13.6500   20.9320 H   0  0  0  0  0  0  0  0  0  0  0  0
   26.8480   14.6100   20.9620 H   0  0  0  0  0  0  0  0  0  0  0  0
   27.6740   13.3370   20.0310 H   0  0  0  0  0  0  0  0  0  0  0  0
   27.9140   15.4360   18.8570 H   0  0  0  0  0  0  0  0  0  0  0  0
   29.4990   14.9660   19.5160 H   0  0  0  0  0  0  0  0  0  0  0  0
   27.6080   17.0180   20.7380 H   0  0  0  0  0  0  0  0  0  0  0  0
   29.0840   17.3820   19.8120 H   0  0  0  0  0  0  0  0  0  0  0  0
   29.2010   16.5530   21.3830 H   0  0  0  0  0  0  0  0  0  0  0  0
   30.6290   11.2030   20.9140 H   0  0  0  0  0  0  0  0  0  0  0  0
   29.1430   11.7600   20.1070 H   0  0  0  0  0  0  0  0  0  0  0  0
   29.3170   10.6630   22.9440 H   0  0  0  0  0  0  0  0  0  0  0  0
   28.7140    9.7820   21.5200 H   0  0  0  0  0  0  0  0  0  0  0  0
   27.8330   11.2060   22.1250 H   0  0  0  0  0  0  0  0  0  0  0  0
   26.3300   18.0730   25.5620 H   0  0  0  0  0  0  0  0  0  0  0  0
   24.9180   17.4360   26.4370 H   0  0  0  0  0  0  0  0  0  0  0  0
   24.6970   18.2750   24.8840 H   0  0  0  0  0  0  0  0  0  0  0  0
   21.5530   11.6530   22.6520 H   0  0  0  0  0  0  0  0  0  0  0  0
   22.8500    9.8660   24.6930 H   0  0  0  0  0  0  0  0  0  0  0  0
   21.9380   11.9370   25.6660 H   0  0  0  0  0  0  0  0  0  0  0  0
   22.1800    9.6080   21.5150 H   0  0  0  0  0  0  0  0  0  0  0  0
   23.7560    9.5690   22.3400 H   0  0  0  0  0  0  0  0  0  0  0  0
   21.8550   12.2310   20.3730 H   0  0  0  0  0  0  0  0  0  0  0  0
   25.2500   13.0080   17.7900 H   0  0  0  0  0  0  0  0  0  0  0  0
   25.5190    9.9620   20.8700 H   0  0  0  0  0  0  0  0  0  0  0  0
   20.1980   12.5630   24.1700 H   0  0  0  0  0  0  0  0  0  0  0  0
   19.3290   11.0320   24.4300 H   0  0  0  0  0  0  0  0  0  0  0  0
   18.2860   10.7910   26.9740 H   0  0  0  0  0  0  0  0  0  0  0  0
   18.6420   12.2010   28.0000 H   0  0  0  0  0  0  0  0  0  0  0  0
   20.9870   11.6800   28.0380 H   0  0  0  0  0  0  0  0  0  0  0  0
   20.0960   10.1880   28.4240 H   0  0  0  0  0  0  0  0  0  0  0  0
   17.1830   12.1590   22.7510 H   0  0  0  0  0  0  0  0  0  0  0  0
   15.6980   10.3270   21.9290 H   0  0  0  0  0  0  0  0  0  0  0  0
   14.2900    9.0400   23.5380 H   0  0  0  0  0  0  0  0  0  0  0  0
   14.3550    9.5840   25.9690 H   0  0  0  0  0  0  0  0  0  0  0  0
   15.8350   11.4210   26.7970 H   0  0  0  0  0  0  0  0  0  0  0  0
  1  6  1  0  0  0  0
  1 18  2  0  0  0  0
  1 47  1  0  0  0  0
  2 36  1  0  0  0  0
  3 19  1  0  0  0  0
  3 28  1  0  0  0  0
  3 48  1  0  0  0  0
  4  5  2  0  0  0  0
  5  9  2  0  0  0  0
  5 11  1  0  0  0  0
  5 41  1  0  0  0  0
  6 10  2  0  0  0  0
  6 20  1  0  0  0  0
  7 34  1  0  0  0  0
  8 20  1  0  0  0  0
  8 21  1  0  0  0  0
  8 22  1  0  0  0  0
 10 13  1  0  0  0  0
 10 49  1  0  0  0  0
 11 38  1  0  0  0  0
 11 39  1  0  0  0  0
 12 20  2  0  0  0  0
 13 16  2  0  0  0  0
 13 19  1  0  0  0  0
 14 30  1  0  0  0  0
 14 40  1  0  0  0  0
 14 50  1  0  0  0  0
 14 51  1  0  0  0  0
 15 19  2  0  0  0  0
 16 18  1  0  0  0  0
 16 52  1  0  0  0  0
 17 29  1  0  0  0  0
 17 53  1  0  0  0  0
 18 27  1  0  0  0  0
 21 25  1  0  0  0  0
 21 54  1  0  0  0  0
 21 55  1  0  0  0  0
 22 23  1  0  0  0  0
 22 56  1  0  0  0  0
 22 57  1  0  0  0  0
 23 24  1  0  0  0  0
 23 58  1  0  0  0  0
 23 59  1  0  0  0  0
 24 60  1  0  0  0  0
 24 61  1  0  0  0  0
 24 62  1  0  0  0  0
 25 26  1  0  0  0  0
 25 63  1  0  0  0  0
 25 64  1  0  0  0  0
 26 65  1  0  0  0  0
 26 66  1  0  0  0  0
 26 67  1  0  0  0  0
 27 68  1  0  0  0  0
 27 69  1  0  0  0  0
 27 70  1  0  0  0  0
 28 29  1  0  0  0  0
 28 31  1  0  0  0  0
 28 71  1  0  0  0  0
 29 30  1  0  0  0  0
 29 72  1  0  0  0  0
 30 38  1  0  0  0  0
 30 73  1  0  0  0  0
 31 32  1  0  0  0  0
 31 74  1  0  0  0  0
 31 75  1  0  0  0  0
 32 33  1  0  0  0  0
 32 37  2  0  0  0  0
 33 34  2  0  0  0  0
 33 76  1  0  0  0  0
 34 35  1  0  0  0  0
 35 36  2  0  0  0  0
 35 77  1  0  0  0  0
 36 37  1  0  0  0  0
 37 78  1  0  0  0  0
 38 79  1  0  0  0  0
 38 80  1  0  0  0  0
 39 40  1  0  0  0  0
 39 81  1  0  0  0  0
 39 82  1  0  0  0  0
 40 83  1  0  0  0  0
 40 84  1  0  0  0  0
 41 42  1  0  0  0  0
 41 46  2  0  0  0  0
 42 43  2  0  0  0  0
 42 85  1  0  0  0  0
 43 44  1  0  0  0  0
 43 86  1  0  0  0  0
 44 45  2  0  0  0  0
 44 87  1  0  0  0  0
 45 46  1  0  0  0  0
 45 88  1  0  0  0  0
 46 89  1  0  0  0  0
M  CHG  1  14   1
M  END
>  <PARENT_CMPD_ID>
3LPI

>  <STANDARD_TYPE>
IC50

>  <RELATION>
=

>  <STANDARD_VALUE>
0.0049999999

>  <STANDARD_UNITS>
uM

>  <COMPOUND_KEY>
3a

>  <PUBMED_ID>
20347593

>  <JOURNAL>
Bioorg.Med.Chem.Lett.

>  <YEAR>
2010

>  <VOLUME>
20

>  <FIRST_PAGE>
2837

>  <Company>
Merck

>  <Resolution>
2.05

>  <idx>
20

>  <Model>
Train

>  <target>
8.3010302

>  <des_pred_mlr>
7.7232699

>  <RF_Canvas>
7.9668837

>  <DNN_Canvas>
7.8861036

>  <pred_CoMFA>
8.3273001

>  <pred_COMSIA>
8.1793003

>  <pred_abm5>
8.4225225

>  <pred_ff8>
7.6767335

>  <pred_gau6>
7.9940276

>  <CID>
BACE_20

>  <active>
1

>  <des_class_bayes>
1

>  <maacs_class_bayes>
1

>  <radial_class_bayes>
1

>  <dend_class_bayes>
1

>  <molprint_class_bayes>
1

>  <RF_canvas>
1

>  <DNN_canvas>
1

$$$$
4DUS_886
  MOE2015           3D

 74 77  0  0  1  0  0  0  0  0999 V2000
   18.6940   12.1420   29.4150 C   0  0  0  0  0  0  0  0  0  0  0  0
   19.4150   12.8970   30.5380 C   0  0  0  0  0  0  0  0  0  0  0  0
   20.3580   13.5520   29.5200 C   0  0  0  0  0  0  0  0  0  0  0  0
   19.7090   12.7100   28.4040 C   0  0  0  0  0  0  0  0  0  0  0  0
   20.6900   11.6630   27.8370 C   0  0  0  0  0  0  0  0  0  0  0  0
   19.1060   13.4940   27.3750 O   0  0  0  0  0  0  0  0  0  0  0  0
   18.4670   12.7670   26.4010 C   0  0  0  0  0  0  0  0  0  0  0  0
   17.4830   13.3810   25.7060 N   0  0  0  0  0  0  0  0  0  0  0  0
   16.8210   12.7640   24.7320 C   0  0  0  0  0  0  0  0  0  0  0  0
   17.1240   11.4410   24.4010 C   0  0  0  0  0  0  0  0  0  0  0  0
   16.3490   10.7480   23.2830 C   0  0  0  0  0  0  0  0  0  0  0  0
   15.0200   10.1620   23.7350 C   0  0  0  0  0  0  0  0  0  0  0  0
   14.2480   11.2320   24.5100 C   0  0  0  0  0  0  0  0  0  0  0  0
   15.2160    8.9000   24.6000 C   0  0  0  0  0  0  0  0  0  0  0  0
   14.2300    9.7650   22.4780 C   0  0  0  0  0  0  0  0  0  0  0  0
   18.1400   10.7660   25.0940 C   0  0  0  0  0  0  0  0  0  0  0  0
   18.8250   11.4400   26.0980 C   0  0  0  0  0  0  0  0  0  0  0  0
   19.9400   10.7160   26.8850 C   0  0  3  0  0  0  0  0  0  0  0  0
   20.8930   10.0220   26.0000 N   0  3  0  0  0  0  0  0  0  0  0  0
   21.5780   10.8700   25.0080 C   0  0  0  0  0  0  0  0  0  0  0  0
   22.0910    9.9450   23.8920 C   0  0  3  0  0  0  0  0  0  0  0  0
   21.0310    9.0990   23.4400 O   0  0  0  0  0  0  0  0  0  0  0  0
   22.6410   10.7290   22.7060 C   0  0  3  0  0  0  0  0  0  0  0  0
   23.8450   11.4840   23.1090 N   0  0  0  0  0  0  0  0  0  0  0  0
   23.7760   12.7990   23.3120 C   0  0  0  0  0  0  0  0  0  0  0  0
   25.0810   13.4750   23.7560 C   0  0  0  0  0  0  0  0  0  0  0  0
   22.7350   13.4460   23.1920 O   0  0  0  0  0  0  0  0  0  0  0  0
   22.9400    9.7890   21.5270 C   0  0  0  0  0  0  0  0  0  0  0  0
   23.7460   10.5120   20.4440 C   0  0  0  0  0  0  0  0  0  0  0  0
   25.0560   10.1450   20.1850 C   0  0  0  0  0  0  0  0  0  0  0  0
   25.7710   10.8280   19.2100 C   0  0  0  0  0  0  0  0  0  0  0  0
   25.1690   11.8620   18.4970 C   0  0  0  0  0  0  0  0  0  0  0  0
   25.8470   12.5240   17.5430 F   0  0  0  0  0  0  0  0  0  0  0  0
   23.8690   12.2350   18.7650 C   0  0  0  0  0  0  0  0  0  0  0  0
   23.1630   11.5540   19.7460 C   0  0  0  0  0  0  0  0  0  0  0  0
   17.6670   12.4650   29.2470 H   0  0  0  0  0  0  0  0  0  0  0  0
   18.7220   11.0570   29.5160 H   0  0  0  0  0  0  0  0  0  0  0  0
   19.9190   12.2480   31.2540 H   0  0  0  0  0  0  0  0  0  0  0  0
   18.7810   13.6050   31.0730 H   0  0  0  0  0  0  0  0  0  0  0  0
   21.4140   13.3380   29.6860 H   0  0  0  0  0  0  0  0  0  0  0  0
   20.2190   14.6270   29.4080 H   0  0  0  0  0  0  0  0  0  0  0  0
   21.1200   11.0880   28.6570 H   0  0  0  0  0  0  0  0  0  0  0  0
   21.4860   12.1700   27.2920 H   0  0  0  0  0  0  0  0  0  0  0  0
   16.0450   13.2880   24.1940 H   0  0  0  0  0  0  0  0  0  0  0  0
   16.9640    9.9400   22.8860 H   0  0  0  0  0  0  0  0  0  0  0  0
   16.1540   11.4770   22.4960 H   0  0  0  0  0  0  0  0  0  0  0  0
   14.8100   11.5120   25.4010 H   0  0  0  0  0  0  0  0  0  0  0  0
   13.2750   10.8370   24.8030 H   0  0  0  0  0  0  0  0  0  0  0  0
   14.1090   12.1090   23.8780 H   0  0  0  0  0  0  0  0  0  0  0  0
   15.7750    9.1590   25.4990 H   0  0  0  0  0  0  0  0  0  0  0  0
   15.7680    8.1520   24.0310 H   0  0  0  0  0  0  0  0  0  0  0  0
   14.2430    8.4970   24.8810 H   0  0  0  0  0  0  0  0  0  0  0  0
   14.0800   10.6440   21.8510 H   0  0  0  0  0  0  0  0  0  0  0  0
   13.2620    9.3580   22.7710 H   0  0  0  0  0  0  0  0  0  0  0  0
   14.7880    9.0120   21.9210 H   0  0  0  0  0  0  0  0  0  0  0  0
   18.3850    9.7420   24.8520 H   0  0  0  0  0  0  0  0  0  0  0  0
   19.4330    9.9620   27.4880 H   0  0  0  0  0  0  0  0  0  0  0  0
   20.3860    9.3060   25.4990 H   0  0  0  0  0  0  0  0  0  0  0  0
   21.5990    9.5920   26.5800 H   0  0  0  0  0  0  0  0  0  0  0  0
   22.4140   11.3900   25.4760 H   0  0  0  0  0  0  0  0  0  0  0  0
   20.8810   11.6000   24.5960 H   0  0  0  0  0  0  0  0  0  0  0  0
   22.9020    9.3500   24.3110 H   0  0  0  0  0  0  0  0  0  0  0  0
   20.3420    9.6630   23.0810 H   0  0  0  0  0  0  0  0  0  0  0  0
   21.8870   11.4440   22.3760 H   0  0  0  0  0  0  0  0  0  0  0  0
   24.7240   11.0020   23.2310 H   0  0  0  0  0  0  0  0  0  0  0  0
   25.8780   12.7330   23.7990 H   0  0  0  0  0  0  0  0  0  0  0  0
   24.9430   13.9180   24.7420 H   0  0  0  0  0  0  0  0  0  0  0  0
   25.3480   14.2540   23.0420 H   0  0  0  0  0  0  0  0  0  0  0  0
   21.9990    9.4420   21.1000 H   0  0  0  0  0  0  0  0  0  0  0  0
   23.5130    8.9350   21.8880 H   0  0  0  0  0  0  0  0  0  0  0  0
   25.5160    9.3370   20.7350 H   0  0  0  0  0  0  0  0  0  0  0  0
   26.7960   10.5570   19.0040 H   0  0  0  0  0  0  0  0  0  0  0  0
   23.4070   13.0450   18.2200 H   0  0  0  0  0  0  0  0  0  0  0  0
   22.1460   11.8410   19.9670 H   0  0  0  0  0  0  0  0  0  0  0  0
  1  2  1  0  0  0  0
  1  4  1  0  0  0  0
  1 36  1  0  0  0  0
  1 37  1  0  0  0  0
  2  3  1  0  0  0  0
  2 38  1  0  0  0  0
  2 39  1  0  0  0  0
  3  4  1  0  0  0  0
  3 40  1  0  0  0  0
  3 41  1  0  0  0  0
  4  5  1  0  0  0  0
  4  6  1  0  0  0  0
  5 18  1  0  0  0  0
  5 42  1  0  0  0  0
  5 43  1  0  0  0  0
  6  7  1  0  0  0  0
  7  8  1  0  0  0  0
  7 17  2  0  0  0  0
  8  9  2  0  0  0  0
  9 10  1  0  0  0  0
  9 44  1  0  0  0  0
 10 11  1  0  0  0  0
 10 16  2  0  0  0  0
 11 12  1  0  0  0  0
 11 45  1  0  0  0  0
 11 46  1  0  0  0  0
 12 13  1  0  0  0  0
 12 14  1  0  0  0  0
 12 15  1  0  0  0  0
 13 47  1  0  0  0  0
 13 48  1  0  0  0  0
 13 49  1  0  0  0  0
 14 50  1  0  0  0  0
 14 51  1  0  0  0  0
 14 52  1  0  0  0  0
 15 53  1  0  0  0  0
 15 54  1  0  0  0  0
 15 55  1  0  0  0  0
 16 17  1  0  0  0  0
 16 56  1  0  0  0  0
 17 18  1  0  0  0  0
 18 19  1  0  0  0  0
 18 57  1  0  0  0  0
 19 20  1  0  0  0  0
 19 58  1  0  0  0  0
 19 59  1  0  0  0  0
 20 21  1  0  0  0  0
 20 60  1  0  0  0  0
 20 61  1  0  0  0  0
 21 22  1  0  0  0  0
 21 23  1  0  0  0  0
 21 62  1  0  0  0  0
 22 63  1  0  0  0  0
 23 24  1  0  0  0  0
 23 28  1  0  0  0  0
 23 64  1  0  0  0  0
 24 25  1  0  0  0  0
 24 65  1  0  0  0  0
 25 26  1  0  0  0  0
 25 27  2  0  0  0  0
 26 66  1  0  0  0  0
 26 67  1  0  0  0  0
 26 68  1  0  0  0  0
 28 29  1  0  0  0  0
 28 69  1  0  0  0  0
 28 70  1  0  0  0  0
 29 30  1  0  0  0  0
 29 35  2  0  0  0  0
 30 31  2  0  0  0  0
 30 71  1  0  0  0  0
 31 32  1  0  0  0  0
 31 72  1  0  0  0  0
 32 33  1  0  0  0  0
 32 34  2  0  0  0  0
 34 35  1  0  0  0  0
 34 73  1  0  0  0  0
 35 74  1  0  0  0  0
M  CHG  1  19   1
M  END
>  <PARENT_CMPD_ID>
4DUS

>  <STANDARD_TYPE>
IC50

>  <RELATION>
=

>  <STANDARD_VALUE>
0.0049999999

>  <STANDARD_UNITS>
uM

>  <COMPOUND_KEY>
16

>  <PUBMED_ID>
24900403

>  <JOURNAL>
ACS Med.Chem.Lett.

>  <YEAR>
2012

>  <VOLUME>
3

>  <FIRST_PAGE>
886

>  <Company>
Amgen

>  <Resolution>
2.5

>  <idx>
21

>  <Model>
Train

>  <target>
8.3010302

>  <des_pred_mlr>
6.8623199

>  <RF_Canvas>
8.0230856

>  <DNN_Canvas>
7.8262424

>  <pred_CoMFA>
8.0894003

>  <pred_COMSIA>
7.4305

>  <pred_abm5>
8.0857697

>  <pred_ff8>
7.7831488

>  <pred_gau6>
7.8921304

>  <CID>
BACE_21

>  <active>
1

>  <des_class_bayes>
0

>  <maacs_class_bayes>
1

>  <radial_class_bayes>
1

>  <dend_class_bayes>
1

>  <molprint_class_bayes>
1

>  <RF_canvas>
1

>  <DNN_canvas>
1

$$$$
3SKF_6909
  MOE2015           3D

 98101  0  0  1  0  0  0  0  0999 V2000
   25.5440   20.2660   25.3840 C   0  0  0  0  0  0  0  0  0  0  0  0
   25.3300   21.3190   25.4890 H   0  0  0  0  0  0  0  0  0  0  0  0
   25.0640   12.0980   18.3880 C   0  0  0  0  0  0  0  0  0  0  0  0
   25.4760   12.6410   17.5510 H   0  0  0  0  0  0  0  0  0  0  0  0
   24.8550   19.2500   26.2860 C   0  0  0  0  0  0  0  0  0  0  0  0
   24.1510   19.5800   27.0350 H   0  0  0  0  0  0  0  0  0  0  0  0
   26.5380   19.7860   24.3330 C   0  0  0  0  0  0  0  0  0  0  0  0
   27.0290   20.5070   23.6960 H   0  0  0  0  0  0  0  0  0  0  0  0
   23.7700   12.5730   19.0460 C   0  0  0  0  0  0  0  0  0  0  0  0
   23.2650   13.4530   18.6760 H   0  0  0  0  0  0  0  0  0  0  0  0
   25.7760   10.8510   18.9170 C   0  0  0  0  0  0  0  0  0  0  0  0
   26.6900   10.5130   18.4510 H   0  0  0  0  0  0  0  0  0  0  0  0
   17.0770   13.1550   25.3900 C   0  0  0  0  0  0  0  0  0  0  0  0
   16.7080   14.1620   25.2630 H   0  0  0  0  0  0  0  0  0  0  0  0
   25.1630   17.7660   26.1270 C   0  0  0  0  0  0  0  0  0  0  0  0
   24.6780   17.0450   26.7690 H   0  0  0  0  0  0  0  0  0  0  0  0
   26.8480   18.3030   24.1690 C   0  0  0  0  0  0  0  0  0  0  0  0
   27.5550   17.9720   23.4220 H   0  0  0  0  0  0  0  0  0  0  0  0
   23.1920   11.7950   20.2340 C   0  0  0  0  0  0  0  0  0  0  0  0
   22.2780   12.1300   20.7020 H   0  0  0  0  0  0  0  0  0  0  0  0
   25.1970   10.0830   20.1030 C   0  0  0  0  0  0  0  0  0  0  0  0
   25.7070    9.2080   20.4780 H   0  0  0  0  0  0  0  0  0  0  0  0
   18.3620   12.9170   26.1880 C   0  0  0  0  0  0  0  0  0  0  0  0
   18.9010   13.7470   26.6200 H   0  0  0  0  0  0  0  0  0  0  0  0
   16.3070   11.9840   24.7690 C   0  0  0  0  0  0  0  0  0  0  0  0
   15.4020   12.1680   24.2090 H   0  0  0  0  0  0  0  0  0  0  0  0
   18.0990   10.3190   25.7430 C   0  0  0  0  0  0  0  0  0  0  0  0
   18.4660    9.3120   25.8740 H   0  0  0  0  0  0  0  0  0  0  0  0
   26.1510   17.2930   25.0690 C   0  0  0  0  0  0  0  0  0  0  0  0
   23.9030   10.5460   20.7600 C   0  0  0  0  0  0  0  0  0  0  0  0
   18.8690   11.4880   26.3630 C   0  0  0  0  0  0  0  0  0  0  0  0
   16.8220   10.5540   24.9440 C   0  0  0  0  0  0  0  0  0  0  0  0
   27.7350   13.0500   23.1850 C   0  0  0  0  0  0  0  0  0  0  0  0
   30.0440   14.9540   22.5980 C   0  0  0  0  0  0  0  0  0  0  0  0
   24.0040   12.9240   23.7880 C   0  0  0  0  0  0  0  0  0  0  0  0
   27.4330   13.9820   20.9840 C   0  0  0  0  0  0  0  0  0  0  0  0
   27.8040   15.0070   20.9950 H   0  0  0  0  0  0  0  0  0  0  0  0
   27.3830   13.6250   19.9550 H   0  0  0  0  0  0  0  0  0  0  0  0
   26.0390   13.9260   21.6230 C   0  0  0  0  0  0  0  0  0  0  0  0
   25.4140   13.1780   21.1360 H   0  0  0  0  0  0  0  0  0  0  0  0
   25.5470   14.8970   21.5760 H   0  0  0  0  0  0  0  0  0  0  0  0
   28.3710   13.0780   21.8060 C   0  0  3  0  0  0  0  0  0  0  0  0
   31.5280   15.3240   22.6510 C   0  0  0  0  0  0  0  0  0  0  0  0
   31.7980   15.8720   21.7480 H   0  0  0  0  0  0  0  0  0  0  0  0
   32.1270   14.4160   22.7180 H   0  0  0  0  0  0  0  0  0  0  0  0
   31.7160   15.9480   23.5240 H   0  0  0  0  0  0  0  0  0  0  0  0
   28.5520    9.1870   21.9110 C   0  0  0  0  0  0  0  0  0  0  0  0
   28.8720    8.4950   22.6900 H   0  0  0  0  0  0  0  0  0  0  0  0
   29.0790    8.9600   20.9840 H   0  0  0  0  0  0  0  0  0  0  0  0
   27.4780    9.0850   21.7530 H   0  0  0  0  0  0  0  0  0  0  0  0
   29.4100   11.5050   20.1150 C   0  0  0  0  0  0  0  0  0  0  0  0
   29.1390   12.2230   19.3410 H   0  0  0  0  0  0  0  0  0  0  0  0
   29.3530   10.4950   19.7090 H   0  0  0  0  0  0  0  0  0  0  0  0
   30.4270   11.7030   20.4540 H   0  0  0  0  0  0  0  0  0  0  0  0
   16.1710    9.2330   22.9690 C   0  0  0  0  0  0  0  0  0  0  0  0
   15.5970    8.3440   22.7090 H   0  0  0  0  0  0  0  0  0  0  0  0
   17.2060    9.1030   22.6520 H   0  0  0  0  0  0  0  0  0  0  0  0
   15.7440   10.1010   22.4670 H   0  0  0  0  0  0  0  0  0  0  0  0
   26.4490   15.8140   24.9270 C   0  0  0  0  0  0  0  0  0  0  0  0
   26.8900   15.4390   25.8500 H   0  0  0  0  0  0  0  0  0  0  0  0
   27.1450   15.6580   24.1020 H   0  0  0  0  0  0  0  0  0  0  0  0
   23.3370    9.7730   21.9500 C   0  0  0  0  0  0  0  0  0  0  0  0
   24.0900    9.0630   22.2930 H   0  0  0  0  0  0  0  0  0  0  0  0
   22.4490    9.2320   21.6220 H   0  0  0  0  0  0  0  0  0  0  0  0
   20.1520   11.2190   27.1510 C   0  0  0  0  0  0  0  0  0  0  0  0
   19.8920   10.7580   28.1040 H   0  0  0  0  0  0  0  0  0  0  0  0
   20.6600   12.1660   27.3330 H   0  0  0  0  0  0  0  0  0  0  0  0
   28.8690   10.6140   22.3390 C   0  0  0  0  0  0  0  0  0  0  0  0
   29.9430   10.7010   22.5010 H   0  0  0  0  0  0  0  0  0  0  0  0
   28.3430   10.8260   23.2700 H   0  0  0  0  0  0  0  0  0  0  0  0
   25.1510   15.0780   24.6460 C   0  0  0  0  0  0  0  0  0  0  0  0
   24.6020   15.6300   23.8830 H   0  0  0  0  0  0  0  0  0  0  0  0
   24.5670   15.0500   25.5660 H   0  0  0  0  0  0  0  0  0  0  0  0
   21.4960   10.9430   25.1360 C   0  0  0  0  0  0  0  0  0  0  0  0
   20.6140   11.2220   24.5600 H   0  0  0  0  0  0  0  0  0  0  0  0
   22.0850   11.8340   25.3530 H   0  0  0  0  0  0  0  0  0  0  0  0
   25.3450   13.6460   24.1560 C   0  0  3  0  0  0  0  0  0  0  0  0
   25.7640   13.1060   25.0050 H   0  0  0  0  0  0  0  0  0  0  0  0
   28.4460   11.6360   21.2920 C   0  0  3  0  0  0  0  0  0  0  0  0
   27.4210   11.4170   20.9920 H   0  0  0  0  0  0  0  0  0  0  0  0
   22.9510   10.6790   23.1230 C   0  0  3  0  0  0  0  0  0  0  0  0
   22.1400   11.3150   22.7680 H   0  0  0  0  0  0  0  0  0  0  0  0
   22.3370    9.9650   24.3300 C   0  0  3  0  0  0  0  0  0  0  0  0
   23.1530    9.5780   24.9400 H   0  0  0  0  0  0  0  0  0  0  0  0
   26.3360   13.5410   23.0350 N   0  0  0  0  0  0  0  0  0  0  0  0
   29.7260   13.7100   22.0440 N   0  0  0  0  0  0  0  0  0  0  0  0
   30.5290   13.1560   21.7750 H   0  0  0  0  0  0  0  0  0  0  0  0
   24.1020   11.5620   23.5080 N   0  0  0  0  0  0  0  0  0  0  0  0
   25.0290   11.1480   23.5480 H   0  0  0  0  0  0  0  0  0  0  0  0
   21.0740   10.3090   26.4090 N   0  3  0  0  0  0  0  0  0  0  0  0
   20.5980    9.4410   26.2090 H   0  0  0  0  0  0  0  0  0  0  0  0
   21.8890   10.1230   26.9760 H   0  0  0  0  0  0  0  0  0  0  0  0
   28.3970   12.5840   24.3550 O   0  0  0  0  0  0  0  0  0  0  0  0
   29.0700   15.8410   23.1320 O   0  0  0  0  0  0  0  0  0  0  0  0
   22.9140   13.4950   23.8260 O   0  0  0  0  0  0  0  0  0  0  0  0
   21.5090    8.8770   23.9180 O   0  0  0  0  0  0  0  0  0  0  0  0
   20.7990    9.2390   23.3830 H   0  0  0  0  0  0  0  0  0  0  0  0
   16.1270    9.4320   24.3850 O   0  0  0  0  0  0  0  0  0  0  0  0
  1  2  1  0  0  0  0
  1  5  2  0  0  0  0
  1  7  1  0  0  0  0
  3  4  1  0  0  0  0
  3  9  2  0  0  0  0
  3 11  1  0  0  0  0
  5  6  1  0  0  0  0
  5 15  1  0  0  0  0
  7  8  1  0  0  0  0
  7 17  2  0  0  0  0
  9 10  1  0  0  0  0
  9 19  1  0  0  0  0
 11 12  1  0  0  0  0
 11 21  2  0  0  0  0
 13 14  1  0  0  0  0
 13 23  2  0  0  0  0
 13 25  1  0  0  0  0
 15 16  1  0  0  0  0
 15 29  2  0  0  0  0
 17 18  1  0  0  0  0
 17 29  1  0  0  0  0
 19 20  1  0  0  0  0
 19 30  2  0  0  0  0
 21 22  1  0  0  0  0
 21 30  1  0  0  0  0
 23 24  1  0  0  0  0
 23 31  1  0  0  0  0
 25 26  1  0  0  0  0
 25 32  2  0  0  0  0
 27 28  1  0  0  0  0
 27 31  2  0  0  0  0
 27 32  1  0  0  0  0
 29 59  1  0  0  0  0
 30 62  1  0  0  0  0
 31 65  1  0  0  0  0
 32 98  1  0  0  0  0
 33 42  1  0  0  0  0
 33 85  1  0  0  0  0
 33 93  2  0  0  0  0
 34 43  1  0  0  0  0
 34 86  1  0  0  0  0
 34 94  2  0  0  0  0
 35 77  1  0  0  0  0
 35 88  1  0  0  0  0
 35 95  2  0  0  0  0
 36 37  1  0  0  0  0
 36 38  1  0  0  0  0
 36 39  1  0  0  0  0
 36 42  1  0  0  0  0
 39 40  1  0  0  0  0
 39 41  1  0  0  0  0
 39 85  1  0  0  0  0
 42 79  1  0  0  0  0
 42 86  1  0  0  0  0
 43 44  1  0  0  0  0
 43 45  1  0  0  0  0
 43 46  1  0  0  0  0
 47 48  1  0  0  0  0
 47 49  1  0  0  0  0
 47 50  1  0  0  0  0
 47 68  1  0  0  0  0
 51 52  1  0  0  0  0
 51 53  1  0  0  0  0
 51 54  1  0  0  0  0
 51 79  1  0  0  0  0
 55 56  1  0  0  0  0
 55 57  1  0  0  0  0
 55 58  1  0  0  0  0
 55 98  1  0  0  0  0
 59 60  1  0  0  0  0
 59 61  1  0  0  0  0
 59 71  1  0  0  0  0
 62 63  1  0  0  0  0
 62 64  1  0  0  0  0
 62 81  1  0  0  0  0
 65 66  1  0  0  0  0
 65 67  1  0  0  0  0
 65 90  1  0  0  0  0
 68 69  1  0  0  0  0
 68 70  1  0  0  0  0
 68 79  1  0  0  0  0
 71 72  1  0  0  0  0
 71 73  1  0  0  0  0
 71 77  1  0  0  0  0
 74 75  1  0  0  0  0
 74 76  1  0  0  0  0
 74 83  1  0  0  0  0
 74 90  1  0  0  0  0
 77 78  1  0  0  0  0
 77 85  1  0  0  0  0
 79 80  1  0  0  0  0
 81 82  1  0  0  0  0
 81 83  1  0  0  0  0
 81 88  1  0  0  0  0
 83 84  1  0  0  0  0
 83 96  1  0  0  0  0
 86 87  1  0  0  0  0
 88 89  1  0  0  0  0
 90 91  1  0  0  0  0
 90 92  1  0  0  0  0
 96 97  1  0  0  0  0
M  CHG  1  90   1
M  END
>  <PARENT_CMPD_ID>
3SKF

>  <STANDARD_TYPE>
IC50

>  <RELATION>
=

>  <STANDARD_VALUE>
0.0049999999

>  <STANDARD_UNITS>
uM

>  <COMPOUND_KEY>
5

>  <PUBMED_ID>
21974952

>  <JOURNAL>
Bioorg.Med.Chem.Lett.

>  <YEAR>
2011

>  <VOLUME>
21

>  <FIRST_PAGE>
6909

>  <Company>
BMS

>  <Resolution>
3

>  <idx>
22

>  <Model>
Train

>  <target>
8.3010302

>  <des_pred_mlr>
6.9521999

>  <RF_Canvas>
8.1599579

>  <DNN_Canvas>
7.8555245

>  <pred_CoMFA>
8.6546001

>  <pred_COMSIA>
8.9506998

>  <pred_abm5>
8.5998392

>  <pred_ff8>
7.8796482

>  <pred_gau6>
8.6127825

>  <CID>
BACE_22

>  <active>
1

>  <des_class_bayes>
1

>  <maacs_class_bayes>
0

>  <radial_class_bayes>
1

>  <dend_class_bayes>
1

>  <molprint_class_bayes>
1

>  <RF_canvas>
1

>  <DNN_canvas>
1

$$$$
4DI2_9025
  MOE2015           3D

 87 91  0  0  1  0  0  0  0  0999 V2000
   20.8220   13.9400   29.5980 C   0  0  0  0  0  0  0  0  0  0  0  0
   19.9880   13.2720   30.7080 C   0  0  0  0  0  0  0  0  0  0  0  0
   19.2150   12.4770   29.6500 C   0  0  0  0  0  0  0  0  0  0  0  0
   20.1420   13.0460   28.5610 C   0  0  0  0  0  0  0  0  0  0  0  0
   21.0960   11.9880   27.9800 C   0  0  0  0  0  0  0  0  0  0  0  0
   19.4760   13.8190   27.5410 O   0  0  0  0  0  0  0  0  0  0  0  0
   18.8900   13.0960   26.5450 C   0  0  0  0  0  0  0  0  0  0  0  0
   17.9740   13.7370   25.7970 N   0  0  0  0  0  0  0  0  0  0  0  0
   17.3390   13.1320   24.8050 C   0  0  0  0  0  0  0  0  0  0  0  0
   17.5990   11.7980   24.4950 C   0  0  0  0  0  0  0  0  0  0  0  0
   16.8200   11.1270   23.3470 C   0  0  0  0  0  0  0  0  0  0  0  0
   15.4540   10.5560   23.8330 C   0  0  0  0  0  0  0  0  0  0  0  0
   14.6690   11.5860   24.6610 C   0  0  0  0  0  0  0  0  0  0  0  0
   15.6490    9.2850   24.6560 C   0  0  0  0  0  0  0  0  0  0  0  0
   14.5930   10.1990   22.6190 C   0  0  0  0  0  0  0  0  0  0  0  0
   18.5440   11.0920   25.2440 C   0  0  0  0  0  0  0  0  0  0  0  0
   19.2160   11.7480   26.2820 C   0  0  0  0  0  0  0  0  0  0  0  0
   20.2800   10.9920   27.1260 C   0  0  3  0  0  0  0  0  0  0  0  0
   21.1920   10.1730   26.2770 N   0  3  0  0  0  0  0  0  0  0  0  0
   21.8900   10.9440   25.2150 C   0  0  0  0  0  0  0  0  0  0  0  0
   22.3440    9.9940   24.0790 C   0  0  3  0  0  0  0  0  0  0  0  0
   21.2380    9.2060   23.6590 O   0  0  0  0  0  0  0  0  0  0  0  0
   22.9250   10.7210   22.8410 C   0  0  3  0  0  0  0  0  0  0  0  0
   23.9830   11.6730   23.2350 N   0  0  0  0  0  0  0  0  0  0  0  0
   23.7720   12.9910   23.3030 C   0  0  0  0  0  0  0  0  0  0  0  0
   22.6890   13.5170   23.0450 O   0  0  0  0  0  0  0  0  0  0  0  0
   24.9160   13.9150   23.7160 C   0  0  3  0  0  0  0  0  0  0  0  0
   24.8560   14.1750   25.2180 C   0  0  0  0  0  0  0  0  0  0  0  0
   26.1670   13.3140   23.3790 O   0  0  0  0  0  0  0  0  0  0  0  0
   26.5980   13.8070   22.1170 C   0  0  0  0  0  0  0  0  0  0  0  0
   23.4460    9.7080   21.7960 C   0  0  0  0  0  0  0  0  0  0  0  0
   24.2870   10.3480   20.6830 C   0  0  0  0  0  0  0  0  0  0  0  0
   25.6690   10.4050   20.8350 C   0  0  0  0  0  0  0  0  0  0  0  0
   23.7010   10.8640   19.5270 C   0  0  0  0  0  0  0  0  0  0  0  0
   24.5060   11.4400   18.5380 C   0  0  0  0  0  0  0  0  0  0  0  0
   25.8950   11.4950   18.7010 C   0  0  0  0  0  0  0  0  0  0  0  0
   26.4790   10.9640   19.8590 C   0  0  0  0  0  0  0  0  0  0  0  0
   27.8530   11.0300   20.0930 C   0  0  0  0  0  0  0  0  0  0  0  0
   28.7030   11.9880   19.7110 N   0  0  0  0  0  0  0  0  0  0  0  0
   29.9770   11.8170   20.1170 C   0  0  0  0  0  0  0  0  0  0  0  0
   30.2160   10.7290   20.8640 C   0  0  0  0  0  0  0  0  0  0  0  0
   28.7400    9.9190   21.0360 S   0  0  0  0  0  0  0  0  0  0  0  0
   21.8960   13.7800   29.6890 H   0  0  0  0  0  0  0  0  0  0  0  0
   20.6230   15.0040   29.4690 H   0  0  0  0  0  0  0  0  0  0  0  0
   19.3730   13.9660   31.2810 H   0  0  0  0  0  0  0  0  0  0  0  0
   20.5710   12.6540   31.3910 H   0  0  0  0  0  0  0  0  0  0  0  0
   18.1710   12.7710   29.5460 H   0  0  0  0  0  0  0  0  0  0  0  0
   19.2780   11.3950   29.7700 H   0  0  0  0  0  0  0  0  0  0  0  0
   21.5890   11.4550   28.7930 H   0  0  0  0  0  0  0  0  0  0  0  0
   21.8460   12.4750   27.3570 H   0  0  0  0  0  0  0  0  0  0  0  0
   16.6090   13.6800   24.2280 H   0  0  0  0  0  0  0  0  0  0  0  0
   17.4200   10.3120   22.9430 H   0  0  0  0  0  0  0  0  0  0  0  0
   16.6360   11.8650   22.5660 H   0  0  0  0  0  0  0  0  0  0  0  0
   15.2520   11.8670   25.5380 H   0  0  0  0  0  0  0  0  0  0  0  0
   13.7210   11.1510   24.9780 H   0  0  0  0  0  0  0  0  0  0  0  0
   14.4780   12.4710   24.0540 H   0  0  0  0  0  0  0  0  0  0  0  0
   16.2600    9.5090   25.5300 H   0  0  0  0  0  0  0  0  0  0  0  0
   16.1480    8.5310   24.0470 H   0  0  0  0  0  0  0  0  0  0  0  0
   14.6780    8.9080   24.9780 H   0  0  0  0  0  0  0  0  0  0  0  0
   14.4360   11.0900   22.0100 H   0  0  0  0  0  0  0  0  0  0  0  0
   13.6300    9.8150   22.9570 H   0  0  0  0  0  0  0  0  0  0  0  0
   15.1000    9.4380   22.0260 H   0  0  0  0  0  0  0  0  0  0  0  0
   18.7530   10.0550   25.0250 H   0  0  0  0  0  0  0  0  0  0  0  0
   19.7450   10.3080   27.7840 H   0  0  0  0  0  0  0  0  0  0  0  0
   20.6470    9.4470   25.8350 H   0  0  0  0  0  0  0  0  0  0  0  0
   21.8900    9.7530   26.8750 H   0  0  0  0  0  0  0  0  0  0  0  0
   22.7630   11.4380   25.6420 H   0  0  0  0  0  0  0  0  0  0  0  0
   21.2110   11.6940   24.8080 H   0  0  0  0  0  0  0  0  0  0  0  0
   23.1460    9.3850   24.4960 H   0  0  0  0  0  0  0  0  0  0  0  0
   20.5740    9.8030   23.3060 H   0  0  0  0  0  0  0  0  0  0  0  0
   22.1200   11.2910   22.3780 H   0  0  0  0  0  0  0  0  0  0  0  0
   24.9000   11.3150   23.4610 H   0  0  0  0  0  0  0  0  0  0  0  0
   24.8190   14.8630   23.1860 H   0  0  0  0  0  0  0  0  0  0  0  0
   24.9530   13.2310   25.7540 H   0  0  0  0  0  0  0  0  0  0  0  0
   23.9020   14.6390   25.4690 H   0  0  0  0  0  0  0  0  0  0  0  0
   25.6700   14.8400   25.5040 H   0  0  0  0  0  0  0  0  0  0  0  0
   27.5530   13.3510   21.8560 H   0  0  0  0  0  0  0  0  0  0  0  0
   26.7150   14.8890   22.1700 H   0  0  0  0  0  0  0  0  0  0  0  0
   25.8570   13.5590   21.3570 H   0  0  0  0  0  0  0  0  0  0  0  0
   22.5890    9.2140   21.3390 H   0  0  0  0  0  0  0  0  0  0  0  0
   24.0600    8.9690   22.3100 H   0  0  0  0  0  0  0  0  0  0  0  0
   26.1200   10.0060   21.7320 H   0  0  0  0  0  0  0  0  0  0  0  0
   22.6300   10.8190   19.3960 H   0  0  0  0  0  0  0  0  0  0  0  0
   24.0530   11.8440   17.6450 H   0  0  0  0  0  0  0  0  0  0  0  0
   26.5140   11.9440   17.9380 H   0  0  0  0  0  0  0  0  0  0  0  0
   30.7590   12.5150   19.8560 H   0  0  0  0  0  0  0  0  0  0  0  0
   31.1680   10.4280   21.2770 H   0  0  0  0  0  0  0  0  0  0  0  0
  1  2  1  0  0  0  0
  1  4  1  0  0  0  0
  1 43  1  0  0  0  0
  1 44  1  0  0  0  0
  2  3  1  0  0  0  0
  2 45  1  0  0  0  0
  2 46  1  0  0  0  0
  3  4  1  0  0  0  0
  3 47  1  0  0  0  0
  3 48  1  0  0  0  0
  4  5  1  0  0  0  0
  4  6  1  0  0  0  0
  5 18  1  0  0  0  0
  5 49  1  0  0  0  0
  5 50  1  0  0  0  0
  6  7  1  0  0  0  0
  7  8  1  0  0  0  0
  7 17  2  0  0  0  0
  8  9  2  0  0  0  0
  9 10  1  0  0  0  0
  9 51  1  0  0  0  0
 10 11  1  0  0  0  0
 10 16  2  0  0  0  0
 11 12  1  0  0  0  0
 11 52  1  0  0  0  0
 11 53  1  0  0  0  0
 12 13  1  0  0  0  0
 12 14  1  0  0  0  0
 12 15  1  0  0  0  0
 13 54  1  0  0  0  0
 13 55  1  0  0  0  0
 13 56  1  0  0  0  0
 14 57  1  0  0  0  0
 14 58  1  0  0  0  0
 14 59  1  0  0  0  0
 15 60  1  0  0  0  0
 15 61  1  0  0  0  0
 15 62  1  0  0  0  0
 16 17  1  0  0  0  0
 16 63  1  0  0  0  0
 17 18  1  0  0  0  0
 18 19  1  0  0  0  0
 18 64  1  0  0  0  0
 19 20  1  0  0  0  0
 19 65  1  0  0  0  0
 19 66  1  0  0  0  0
 20 21  1  0  0  0  0
 20 67  1  0  0  0  0
 20 68  1  0  0  0  0
 21 22  1  0  0  0  0
 21 23  1  0  0  0  0
 21 69  1  0  0  0  0
 22 70  1  0  0  0  0
 23 24  1  0  0  0  0
 23 31  1  0  0  0  0
 23 71  1  0  0  0  0
 24 25  1  0  0  0  0
 24 72  1  0  0  0  0
 25 26  2  0  0  0  0
 25 27  1  0  0  0  0
 27 28  1  0  0  0  0
 27 29  1  0  0  0  0
 27 73  1  0  0  0  0
 28 74  1  0  0  0  0
 28 75  1  0  0  0  0
 28 76  1  0  0  0  0
 29 30  1  0  0  0  0
 30 77  1  0  0  0  0
 30 78  1  0  0  0  0
 30 79  1  0  0  0  0
 31 32  1  0  0  0  0
 31 80  1  0  0  0  0
 31 81  1  0  0  0  0
 32 33  1  0  0  0  0
 32 34  2  0  0  0  0
 33 37  2  0  0  0  0
 33 82  1  0  0  0  0
 34 35  1  0  0  0  0
 34 83  1  0  0  0  0
 35 36  2  0  0  0  0
 35 84  1  0  0  0  0
 36 37  1  0  0  0  0
 36 85  1  0  0  0  0
 37 38  1  0  0  0  0
 38 39  2  0  0  0  0
 38 42  1  0  0  0  0
 39 40  1  0  0  0  0
 40 41  2  0  0  0  0
 40 86  1  0  0  0  0
 41 42  1  0  0  0  0
 41 87  1  0  0  0  0
M  CHG  1  19   1
M  END
>  <PARENT_CMPD_ID>
4DI2

>  <STANDARD_TYPE>
IC50

>  <RELATION>
=

>  <STANDARD_VALUE>
0.0055

>  <STANDARD_UNITS>
uM

>  <COMPOUND_KEY>
37

>  <PUBMED_ID>
22468684

>  <JOURNAL>
J.Med.Chem.

>  <YEAR>
2012

>  <VOLUME>
55

>  <FIRST_PAGE>
9025

>  <Company>
Amgen

>  <Resolution>
2

>  <idx>
23

>  <Model>
Train

>  <target>
8.2596369

>  <des_pred_mlr>
7.7185998

>  <RF_Canvas>
8.1821461

>  <DNN_Canvas>
8.1759586

>  <pred_CoMFA>
8.8044996

>  <pred_COMSIA>
8.5593004

>  <pred_abm5>
9.0838232

>  <pred_ff8>
8.4107046

>  <pred_gau6>
9.0636301

>  <CID>
BACE_23

>  <active>
1

>  <des_class_bayes>
1

>  <maacs_class_bayes>
1

>  <radial_class_bayes>
1

>  <dend_class_bayes>
1

>  <molprint_class_bayes>
1

>  <RF_canvas>
1

>  <DNN_canvas>
1

$$$$
3IXK_870
  MOE2015           3D

113116  0  0  1  0  0  0  0  0999 V2000
   30.1440   13.4960   22.1610 O   0  0  0  0  0  0  0  0  0  0  0  0
   29.1330   12.8860   22.3900 C   0  0  0  0  0  0  0  0  0  0  0  0
   28.8940   11.6370   22.0460 N   0  0  0  0  0  0  0  0  0  0  0  0
   29.8730   10.8790   21.2910 C   0  0  3  0  0  0  0  0  0  0  0  0
   30.6580   10.0790   22.2730 C   0  0  0  0  0  0  0  0  0  0  0  0
   30.0260    9.1230   23.0860 C   0  0  0  0  0  0  0  0  0  0  0  0
   30.8080    8.3750   23.9630 C   0  0  0  0  0  0  0  0  0  0  0  0
   32.1940    8.5790   24.0520 C   0  0  0  0  0  0  0  0  0  0  0  0
   32.8310    9.5330   23.2690 C   0  0  0  0  0  0  0  0  0  0  0  0
   32.0360   10.2890   22.3900 C   0  0  0  0  0  0  0  0  0  0  0  0
   29.2090   10.0380   20.1920 C   0  0  0  0  0  0  0  0  0  0  0  0
   28.0590   13.4960   23.1700 C   0  0  0  0  0  0  0  0  0  0  0  0
   28.3540   14.4690   24.1070 C   0  0  0  0  0  0  0  0  0  0  0  0
   27.2770   14.9310   24.8510 C   0  0  0  0  0  0  0  0  0  0  0  0
   27.4540   15.9100   25.8540 N   0  0  0  0  0  0  0  0  0  0  0  0
   28.8010   16.1540   26.5840 S   0  0  0  0  0  0  0  0  0  0  0  0
   28.3600   16.8020   27.8440 O   0  0  0  0  0  0  0  0  0  0  0  0
   29.6490   17.3480   25.7380 C   0  0  0  0  0  0  0  0  0  0  0  0
   29.6030   14.9590   26.6260 O   0  0  0  0  0  0  0  0  0  0  0  0
   26.2480   16.7010   26.2220 C   0  0  0  0  0  0  0  0  0  0  0  0
   25.9990   14.4240   24.6290 C   0  0  0  0  0  0  0  0  0  0  0  0
   26.7900   12.9620   22.9450 C   0  0  0  0  0  0  0  0  0  0  0  0
   25.7190   13.4300   23.6920 C   0  0  0  0  0  0  0  0  0  0  0  0
   24.3220   12.8810   23.4610 C   0  0  0  0  0  0  0  0  0  0  0  0
   23.3930   13.6600   23.4950 O   0  0  0  0  0  0  0  0  0  0  0  0
   24.1200   11.5710   23.2830 N   0  0  0  0  0  0  0  0  0  0  0  0
   22.8270   10.9460   23.0420 C   0  0  3  0  0  0  0  0  0  0  0  0
   22.9910    9.7810   22.0830 C   0  0  0  0  0  0  0  0  0  0  0  0
   24.2980    9.9460   21.5720 O   0  0  0  0  0  0  0  0  0  0  0  0
   24.2100   10.2290   20.1940 C   0  0  0  0  0  0  0  0  0  0  0  0
   24.5700   11.6310   19.7770 C   0  0  0  0  0  0  0  0  0  0  0  0
   25.8330   11.9640   19.2970 C   0  0  0  0  0  0  0  0  0  0  0  0
   26.0490   13.2720   18.8620 C   0  0  0  0  0  0  0  0  0  0  0  0
   27.2210   13.7160   18.3950 F   0  0  0  0  0  0  0  0  0  0  0  0
   25.0420   14.2130   18.8970 C   0  0  0  0  0  0  0  0  0  0  0  0
   23.7870   13.8870   19.3720 C   0  0  0  0  0  0  0  0  0  0  0  0
   22.8290   14.8290   19.3940 F   0  0  0  0  0  0  0  0  0  0  0  0
   23.5550   12.5830   19.8100 C   0  0  0  0  0  0  0  0  0  0  0  0
   22.2290   10.3110   24.2800 C   0  0  3  0  0  0  0  0  0  0  0  0
   23.1760    9.3680   24.8210 O   0  0  0  0  0  0  0  0  0  0  0  0
   21.7280   11.4260   25.2080 C   0  0  0  0  0  0  0  0  0  0  0  0
   20.5110   10.9420   25.9880 C   0  0  3  0  0  0  0  0  0  0  0  0
   20.6890   11.5370   27.3850 C   0  0  0  0  0  0  0  0  0  0  0  0
   19.2080   11.3630   25.3330 C   0  0  0  0  0  0  0  0  0  0  0  0
   19.1030   12.5270   24.9740 O   0  0  0  0  0  0  0  0  0  0  0  0
   18.1880   10.5150   25.0930 N   0  0  0  0  0  0  0  0  0  0  0  0
   16.9740   11.0650   24.5000 C   0  0  3  0  0  0  0  0  0  0  0  0
   15.8390   10.0730   24.4700 C   0  0  0  0  0  0  0  0  0  0  0  0
   15.3840    9.7490   23.0600 C   0  0  0  0  0  0  0  0  0  0  0  0
   16.0720    8.8650   25.3540 C   0  0  0  0  0  0  0  0  0  0  0  0
   16.5710   12.1970   25.4040 C   0  0  0  0  0  0  0  0  0  0  0  0
   16.5120   11.9470   26.5970 O   0  0  0  0  0  0  0  0  0  0  0  0
   16.2440   13.4010   24.9320 N   0  0  0  0  0  0  0  0  0  0  0  0
   15.8590   14.4670   25.8600 C   0  0  0  0  0  0  0  0  0  0  0  0
   15.9190   15.7680   25.1060 C   0  0  0  0  0  0  0  0  0  0  0  0
   14.8200   16.1790   24.3330 C   0  0  0  0  0  0  0  0  0  0  0  0
   14.8580   17.3710   23.5960 C   0  0  0  0  0  0  0  0  0  0  0  0
   16.0220   18.1470   23.6410 C   0  0  0  0  0  0  0  0  0  0  0  0
   17.1130   17.7270   24.4210 C   0  0  0  0  0  0  0  0  0  0  0  0
   17.0730   16.5380   25.1620 C   0  0  0  0  0  0  0  0  0  0  0  0
   28.0210   11.2030   22.3100 H   0  0  0  0  0  0  0  0  0  0  0  0
   30.5520   11.5360   20.7490 H   0  0  0  0  0  0  0  0  0  0  0  0
   28.9580    8.9720   23.0320 H   0  0  0  0  0  0  0  0  0  0  0  0
   30.3400    7.6260   24.5850 H   0  0  0  0  0  0  0  0  0  0  0  0
   32.7750    7.9840   24.7410 H   0  0  0  0  0  0  0  0  0  0  0  0
   33.8980    9.6880   23.3330 H   0  0  0  0  0  0  0  0  0  0  0  0
   32.5030   11.0540   21.7880 H   0  0  0  0  0  0  0  0  0  0  0  0
   28.5030    9.3410   20.6440 H   0  0  0  0  0  0  0  0  0  0  0  0
   29.9730    9.4810   19.6500 H   0  0  0  0  0  0  0  0  0  0  0  0
   28.6800   10.6950   19.5020 H   0  0  0  0  0  0  0  0  0  0  0  0
   29.3560   14.8450   24.2510 H   0  0  0  0  0  0  0  0  0  0  0  0
   29.0520   18.2590   25.6990 H   0  0  0  0  0  0  0  0  0  0  0  0
   29.8500   17.0020   24.7240 H   0  0  0  0  0  0  0  0  0  0  0  0
   30.5920   17.5530   26.2460 H   0  0  0  0  0  0  0  0  0  0  0  0
   25.4060   16.3890   25.6040 H   0  0  0  0  0  0  0  0  0  0  0  0
   26.4450   17.7610   26.0590 H   0  0  0  0  0  0  0  0  0  0  0  0
   26.0100   16.5330   27.2720 H   0  0  0  0  0  0  0  0  0  0  0  0
   25.1820   14.8210   25.2130 H   0  0  0  0  0  0  0  0  0  0  0  0
   26.6430   12.1950   22.1990 H   0  0  0  0  0  0  0  0  0  0  0  0
   24.9290   10.9670   23.3190 H   0  0  0  0  0  0  0  0  0  0  0  0
   22.1900   11.7490   22.6700 H   0  0  0  0  0  0  0  0  0  0  0  0
   22.2520    9.8300   21.2830 H   0  0  0  0  0  0  0  0  0  0  0  0
   22.8960    8.8300   22.6070 H   0  0  0  0  0  0  0  0  0  0  0  0
   23.1820   10.0430   19.8820 H   0  0  0  0  0  0  0  0  0  0  0  0
   24.8780    9.5450   19.6710 H   0  0  0  0  0  0  0  0  0  0  0  0
   26.6240   11.2300   19.2620 H   0  0  0  0  0  0  0  0  0  0  0  0
   25.2370   15.2170   18.5490 H   0  0  0  0  0  0  0  0  0  0  0  0
   22.5770   12.3090   20.1790 H   0  0  0  0  0  0  0  0  0  0  0  0
   21.3420    9.7100   24.0810 H   0  0  0  0  0  0  0  0  0  0  0  0
   23.9840    9.8480   25.0160 H   0  0  0  0  0  0  0  0  0  0  0  0
   21.4530   12.2960   24.6120 H   0  0  0  0  0  0  0  0  0  0  0  0
   22.5200   11.6990   25.9060 H   0  0  0  0  0  0  0  0  0  0  0  0
   20.4490    9.8540   26.0210 H   0  0  0  0  0  0  0  0  0  0  0  0
   20.7470   12.6230   27.3130 H   0  0  0  0  0  0  0  0  0  0  0  0
   21.6070   11.1530   27.8290 H   0  0  0  0  0  0  0  0  0  0  0  0
   19.8400   11.2590   28.0090 H   0  0  0  0  0  0  0  0  0  0  0  0
   18.2620    9.5330   25.3160 H   0  0  0  0  0  0  0  0  0  0  0  0
   17.1710   11.3590   23.4690 H   0  0  0  0  0  0  0  0  0  0  0  0
   14.9850   10.5700   24.9290 H   0  0  0  0  0  0  0  0  0  0  0  0
   16.1890    9.2440   22.5250 H   0  0  0  0  0  0  0  0  0  0  0  0
   15.1250   10.6720   22.5410 H   0  0  0  0  0  0  0  0  0  0  0  0
   14.5110    9.0980   23.1010 H   0  0  0  0  0  0  0  0  0  0  0  0
   16.9180    8.2940   24.9730 H   0  0  0  0  0  0  0  0  0  0  0  0
   15.1810    8.2380   25.3540 H   0  0  0  0  0  0  0  0  0  0  0  0
   16.2850    9.1950   26.3710 H   0  0  0  0  0  0  0  0  0  0  0  0
   16.2620   13.5770   23.9380 H   0  0  0  0  0  0  0  0  0  0  0  0
   16.5490   14.4940   26.7030 H   0  0  0  0  0  0  0  0  0  0  0  0
   14.8460   14.2950   26.2250 H   0  0  0  0  0  0  0  0  0  0  0  0
   13.9310   15.5660   24.3060 H   0  0  0  0  0  0  0  0  0  0  0  0
   14.0080   17.6830   23.0070 H   0  0  0  0  0  0  0  0  0  0  0  0
   16.0820   19.0660   23.0780 H   0  0  0  0  0  0  0  0  0  0  0  0
   18.0050   18.3360   24.4500 H   0  0  0  0  0  0  0  0  0  0  0  0
   17.9170   16.2290   25.7610 H   0  0  0  0  0  0  0  0  0  0  0  0
  1  2  2  0  0  0  0
  2  3  1  0  0  0  0
  2 12  1  0  0  0  0
  3  4  1  0  0  0  0
  3 61  1  0  0  0  0
  4  5  1  0  0  0  0
  4 11  1  0  0  0  0
  4 62  1  0  0  0  0
  5  6  1  0  0  0  0
  5 10  2  0  0  0  0
  6  7  2  0  0  0  0
  6 63  1  0  0  0  0
  7  8  1  0  0  0  0
  7 64  1  0  0  0  0
  8  9  2  0  0  0  0
  8 65  1  0  0  0  0
  9 10  1  0  0  0  0
  9 66  1  0  0  0  0
 10 67  1  0  0  0  0
 11 68  1  0  0  0  0
 11 69  1  0  0  0  0
 11 70  1  0  0  0  0
 12 13  1  0  0  0  0
 12 22  2  0  0  0  0
 13 14  2  0  0  0  0
 13 71  1  0  0  0  0
 14 15  1  0  0  0  0
 14 21  1  0  0  0  0
 15 16  1  0  0  0  0
 15 20  1  0  0  0  0
 16 17  2  0  0  0  0
 16 18  1  0  0  0  0
 16 19  2  0  0  0  0
 18 72  1  0  0  0  0
 18 73  1  0  0  0  0
 18 74  1  0  0  0  0
 20 75  1  0  0  0  0
 20 76  1  0  0  0  0
 20 77  1  0  0  0  0
 21 23  2  0  0  0  0
 21 78  1  0  0  0  0
 22 23  1  0  0  0  0
 22 79  1  0  0  0  0
 23 24  1  0  0  0  0
 24 25  2  0  0  0  0
 24 26  1  0  0  0  0
 26 27  1  0  0  0  0
 26 80  1  0  0  0  0
 27 28  1  0  0  0  0
 27 39  1  0  0  0  0
 27 81  1  0  0  0  0
 28 29  1  0  0  0  0
 28 82  1  0  0  0  0
 28 83  1  0  0  0  0
 29 30  1  0  0  0  0
 30 31  1  0  0  0  0
 30 84  1  0  0  0  0
 30 85  1  0  0  0  0
 31 32  1  0  0  0  0
 31 38  2  0  0  0  0
 32 33  2  0  0  0  0
 32 86  1  0  0  0  0
 33 34  1  0  0  0  0
 33 35  1  0  0  0  0
 35 36  2  0  0  0  0
 35 87  1  0  0  0  0
 36 37  1  0  0  0  0
 36 38  1  0  0  0  0
 38 88  1  0  0  0  0
 39 40  1  0  0  0  0
 39 41  1  0  0  0  0
 39 89  1  0  0  0  0
 40 90  1  0  0  0  0
 41 42  1  0  0  0  0
 41 91  1  0  0  0  0
 41 92  1  0  0  0  0
 42 43  1  0  0  0  0
 42 44  1  0  0  0  0
 42 93  1  0  0  0  0
 43 94  1  0  0  0  0
 43 95  1  0  0  0  0
 43 96  1  0  0  0  0
 44 45  2  0  0  0  0
 44 46  1  0  0  0  0
 46 47  1  0  0  0  0
 46 97  1  0  0  0  0
 47 48  1  0  0  0  0
 47 51  1  0  0  0  0
 47 98  1  0  0  0  0
 48 49  1  0  0  0  0
 48 50  1  0  0  0  0
 48 99  1  0  0  0  0
 49100  1  0  0  0  0
 49101  1  0  0  0  0
 49102  1  0  0  0  0
 50103  1  0  0  0  0
 50104  1  0  0  0  0
 50105  1  0  0  0  0
 51 52  2  0  0  0  0
 51 53  1  0  0  0  0
 53 54  1  0  0  0  0
 53106  1  0  0  0  0
 54 55  1  0  0  0  0
 54107  1  0  0  0  0
 54108  1  0  0  0  0
 55 56  1  0  0  0  0
 55 60  2  0  0  0  0
 56 57  2  0  0  0  0
 56109  1  0  0  0  0
 57 58  1  0  0  0  0
 57110  1  0  0  0  0
 58 59  2  0  0  0  0
 58111  1  0  0  0  0
 59 60  1  0  0  0  0
 59112  1  0  0  0  0
 60113  1  0  0  0  0
M  END
>  <PARENT_CMPD_ID>
3IXK

>  <STANDARD_TYPE>
IC50

>  <RELATION>
=

>  <STANDARD_VALUE>
0.0066

>  <STANDARD_UNITS>
uM

>  <COMPOUND_KEY>
28

>  <PUBMED_ID>
20036448

>  <JOURNAL>
Eur.J.Med.Chem.

>  <YEAR>
2010

>  <VOLUME>
45

>  <FIRST_PAGE>
870

>  <Company>
Linkoping

>  <Resolution>
2.5

>  <idx>
24

>  <Model>
Train

>  <target>
8.1804562

>  <des_pred_mlr>
8.68606

>  <RF_Canvas>
7.8245392

>  <DNN_Canvas>
7.5960903

>  <pred_CoMFA>
8.7193003

>  <pred_COMSIA>
9.3766003

>  <pred_abm5>
8.5683784

>  <pred_ff8>
7.7157741

>  <pred_gau6>
8.8561306

>  <CID>
BACE_24

>  <active>
1

>  <des_class_bayes>
1

>  <maacs_class_bayes>
1

>  <radial_class_bayes>
1

>  <dend_class_bayes>
1

>  <molprint_class_bayes>
1

>  <RF_canvas>
1

>  <DNN_canvas>
1

$$$$
2QP8_414
  MOE2015           3D

 84 86  0  0  1  0  0  0  0  0999 V2000
   26.7820   11.2300   18.8980 F   0  0  0  0  0  0  0  0  0  0  0  0
   22.6920   13.6070   18.4000 F   0  0  0  0  0  0  0  0  0  0  0  0
   26.8920   15.7380   24.4110 C   0  0  0  0  0  0  0  0  0  0  0  0
   27.0380   14.5470   23.6490 C   0  0  0  0  0  0  0  0  0  0  0  0
   25.8900   13.7440   23.3470 C   0  0  0  0  0  0  0  0  0  0  0  0
   24.6040   14.1460   23.8010 C   0  0  0  0  0  0  0  0  0  0  0  0
   24.4580   15.3460   24.5510 C   0  0  0  0  0  0  0  0  0  0  0  0
   25.6020   16.1370   24.8570 C   0  0  0  0  0  0  0  0  0  0  0  0
   28.3680   14.1220   23.2270 C   0  0  0  0  0  0  0  0  0  0  0  0
   28.6290   13.8950   21.9080 N   0  0  0  0  0  0  0  0  0  0  0  0
   29.2420   13.9590   24.0740 O   0  0  0  0  0  0  0  0  0  0  0  0
   29.9730   13.4470   21.5700 C   0  0  0  0  0  0  0  0  0  0  0  0
   27.6770   14.0810   20.8170 C   0  0  0  0  0  0  0  0  0  0  0  0
   28.2480   15.1380   19.8630 C   0  0  0  0  0  0  0  0  0  0  0  0
   28.8790   16.3490   20.6120 C   0  0  0  0  0  0  0  0  0  0  0  0
   29.9200   11.9580   21.1220 C   0  0  0  0  0  0  0  0  0  0  0  0
   29.0690   11.0590   22.0360 C   0  0  0  0  0  0  0  0  0  0  0  0
   25.4340   17.3770   25.6420 C   0  0  0  0  0  0  0  0  0  0  0  0
   23.4210   13.3550   23.4840 C   0  0  0  0  0  0  0  0  0  0  0  0
   22.3150   13.8590   23.3340 O   0  0  0  0  0  0  0  0  0  0  0  0
   23.6460   12.0230   23.3700 N   0  0  0  0  0  0  0  0  0  0  0  0
   22.5380   11.1120   23.0230 C   0  0  3  0  0  0  0  0  0  0  0  0
   22.0150   10.3090   24.2430 C   0  0  3  0  0  0  0  0  0  0  0  0
   20.9960    9.3810   23.8120 O   0  0  0  0  0  0  0  0  0  0  0  0
   23.0200   10.1620   21.9040 C   0  0  0  0  0  0  0  0  0  0  0  0
   23.6240   10.9540   20.7600 C   0  0  0  0  0  0  0  0  0  0  0  0
   24.9660   10.7140   20.3540 C   0  0  0  0  0  0  0  0  0  0  0  0
   25.5300   11.4570   19.2760 C   0  0  0  0  0  0  0  0  0  0  0  0
   24.7570   12.4420   18.6090 C   0  0  0  0  0  0  0  0  0  0  0  0
   23.4200   12.6800   19.0200 C   0  0  0  0  0  0  0  0  0  0  0  0
   22.8500   11.9410   20.0890 C   0  0  0  0  0  0  0  0  0  0  0  0
   21.3880   11.2080   25.3000 C   0  0  3  0  0  0  0  0  0  0  0  0
   20.1790   11.9770   24.7260 C   0  0  0  0  0  0  0  0  0  0  0  0
   19.3830   12.6890   25.8040 C   0  0  3  0  0  0  0  0  0  0  0  0
   19.0030   11.7200   26.9210 C   0  0  0  0  0  0  0  0  0  0  0  0
   20.2390   11.0520   27.5040 C   0  0  0  0  0  0  0  0  0  0  0  0
   20.9760   10.3420   26.4230 N   0  3  0  0  0  0  0  0  0  0  0  0
   18.2270   13.2320   25.1790 O   0  0  0  0  0  0  0  0  0  0  0  0
   17.4400   13.9560   26.1080 C   0  0  0  0  0  0  0  0  0  0  0  0
   16.4100   14.7580   25.3060 C   0  0  0  0  0  0  0  0  0  0  0  0
   27.7580   16.3380   24.6500 H   0  0  0  0  0  0  0  0  0  0  0  0
   26.0020   12.8350   22.7750 H   0  0  0  0  0  0  0  0  0  0  0  0
   23.4800   15.6570   24.8880 H   0  0  0  0  0  0  0  0  0  0  0  0
   30.6190   13.5420   22.4430 H   0  0  0  0  0  0  0  0  0  0  0  0
   30.3670   14.0580   20.7580 H   0  0  0  0  0  0  0  0  0  0  0  0
   26.7210   14.4200   21.2150 H   0  0  0  0  0  0  0  0  0  0  0  0
   27.5360   13.1400   20.2850 H   0  0  0  0  0  0  0  0  0  0  0  0
   27.4430   15.5040   19.2260 H   0  0  0  0  0  0  0  0  0  0  0  0
   29.0160   14.6720   19.2460 H   0  0  0  0  0  0  0  0  0  0  0  0
   28.1220   16.8260   21.2340 H   0  0  0  0  0  0  0  0  0  0  0  0
   29.2580   17.0680   19.8860 H   0  0  0  0  0  0  0  0  0  0  0  0
   29.6990   16.0010   21.2400 H   0  0  0  0  0  0  0  0  0  0  0  0
   30.9380   11.5680   21.1090 H   0  0  0  0  0  0  0  0  0  0  0  0
   29.5020   11.9170   20.1160 H   0  0  0  0  0  0  0  0  0  0  0  0
   29.4710   11.0860   23.0490 H   0  0  0  0  0  0  0  0  0  0  0  0
   29.0930   10.0350   21.6630 H   0  0  0  0  0  0  0  0  0  0  0  0
   28.0400   11.4190   22.0440 H   0  0  0  0  0  0  0  0  0  0  0  0
   26.4050   17.8530   25.7820 H   0  0  0  0  0  0  0  0  0  0  0  0
   25.0040   17.1360   26.6140 H   0  0  0  0  0  0  0  0  0  0  0  0
   24.7700   18.0570   25.1090 H   0  0  0  0  0  0  0  0  0  0  0  0
   24.5730   11.6530   23.5230 H   0  0  0  0  0  0  0  0  0  0  0  0
   21.6950   11.7110   22.6780 H   0  0  0  0  0  0  0  0  0  0  0  0
   22.8750    9.7960   24.6740 H   0  0  0  0  0  0  0  0  0  0  0  0
   20.2720    9.8940   23.4450 H   0  0  0  0  0  0  0  0  0  0  0  0
   22.1730    9.5850   21.5330 H   0  0  0  0  0  0  0  0  0  0  0  0
   23.7720    9.4840   22.3080 H   0  0  0  0  0  0  0  0  0  0  0  0
   25.5580    9.9680   20.8630 H   0  0  0  0  0  0  0  0  0  0  0  0
   25.1840   13.0070   17.7930 H   0  0  0  0  0  0  0  0  0  0  0  0
   21.8300   12.1280   20.3930 H   0  0  0  0  0  0  0  0  0  0  0  0
   22.1050   11.9560   25.6370 H   0  0  0  0  0  0  0  0  0  0  0  0
   19.5240   11.2700   24.2160 H   0  0  0  0  0  0  0  0  0  0  0  0
   20.5410   12.7170   24.0120 H   0  0  0  0  0  0  0  0  0  0  0  0
   19.9730   13.4820   26.2630 H   0  0  0  0  0  0  0  0  0  0  0  0
   18.3400   10.9540   26.5190 H   0  0  0  0  0  0  0  0  0  0  0  0
   18.4880   12.2690   27.7100 H   0  0  0  0  0  0  0  0  0  0  0  0
   19.9380   10.3360   28.2690 H   0  0  0  0  0  0  0  0  0  0  0  0
   20.8860   11.8090   27.9480 H   0  0  0  0  0  0  0  0  0  0  0  0
   21.8050    9.9280   26.8240 H   0  0  0  0  0  0  0  0  0  0  0  0
   20.3790    9.6140   26.0580 H   0  0  0  0  0  0  0  0  0  0  0  0
   18.0710   14.6320   26.6850 H   0  0  0  0  0  0  0  0  0  0  0  0
   16.9330   13.2670   26.7830 H   0  0  0  0  0  0  0  0  0  0  0  0
   16.9260   15.4430   24.6340 H   0  0  0  0  0  0  0  0  0  0  0  0
   15.7790   15.3260   25.9900 H   0  0  0  0  0  0  0  0  0  0  0  0
   15.7910   14.0750   24.7240 H   0  0  0  0  0  0  0  0  0  0  0  0
  1 28  1  0  0  0  0
  2 30  1  0  0  0  0
  3  4  1  0  0  0  0
  3  8  2  0  0  0  0
  3 41  1  0  0  0  0
  4  5  2  0  0  0  0
  4  9  1  0  0  0  0
  5  6  1  0  0  0  0
  5 42  1  0  0  0  0
  6  7  2  0  0  0  0
  6 19  1  0  0  0  0
  7  8  1  0  0  0  0
  7 43  1  0  0  0  0
  8 18  1  0  0  0  0
  9 10  1  0  0  0  0
  9 11  2  0  0  0  0
 10 12  1  0  0  0  0
 10 13  1  0  0  0  0
 12 16  1  0  0  0  0
 12 44  1  0  0  0  0
 12 45  1  0  0  0  0
 13 14  1  0  0  0  0
 13 46  1  0  0  0  0
 13 47  1  0  0  0  0
 14 15  1  0  0  0  0
 14 48  1  0  0  0  0
 14 49  1  0  0  0  0
 15 50  1  0  0  0  0
 15 51  1  0  0  0  0
 15 52  1  0  0  0  0
 16 17  1  0  0  0  0
 16 53  1  0  0  0  0
 16 54  1  0  0  0  0
 17 55  1  0  0  0  0
 17 56  1  0  0  0  0
 17 57  1  0  0  0  0
 18 58  1  0  0  0  0
 18 59  1  0  0  0  0
 18 60  1  0  0  0  0
 19 20  2  0  0  0  0
 19 21  1  0  0  0  0
 21 22  1  0  0  0  0
 21 61  1  0  0  0  0
 22 23  1  0  0  0  0
 22 25  1  0  0  0  0
 22 62  1  0  0  0  0
 23 24  1  0  0  0  0
 23 32  1  0  0  0  0
 23 63  1  0  0  0  0
 24 64  1  0  0  0  0
 25 26  1  0  0  0  0
 25 65  1  0  0  0  0
 25 66  1  0  0  0  0
 26 27  1  0  0  0  0
 26 31  2  0  0  0  0
 27 28  2  0  0  0  0
 27 67  1  0  0  0  0
 28 29  1  0  0  0  0
 29 30  2  0  0  0  0
 29 68  1  0  0  0  0
 30 31  1  0  0  0  0
 31 69  1  0  0  0  0
 32 33  1  0  0  0  0
 32 37  1  0  0  0  0
 32 70  1  0  0  0  0
 33 34  1  0  0  0  0
 33 71  1  0  0  0  0
 33 72  1  0  0  0  0
 34 35  1  0  0  0  0
 34 38  1  0  0  0  0
 34 73  1  0  0  0  0
 35 36  1  0  0  0  0
 35 74  1  0  0  0  0
 35 75  1  0  0  0  0
 36 37  1  0  0  0  0
 36 76  1  0  0  0  0
 36 77  1  0  0  0  0
 37 78  1  0  0  0  0
 37 79  1  0  0  0  0
 38 39  1  0  0  0  0
 39 40  1  0  0  0  0
 39 80  1  0  0  0  0
 39 81  1  0  0  0  0
 40 82  1  0  0  0  0
 40 83  1  0  0  0  0
 40 84  1  0  0  0  0
M  CHG  1  37   1
M  END
>  <PARENT_CMPD_ID>
2QP8

>  <STANDARD_TYPE>
IC50

>  <RELATION>
=

>  <STANDARD_VALUE>
0.0070000002

>  <STANDARD_UNITS>
uM

>  <COMPOUND_KEY>
2q

>  <PUBMED_ID>
18023580

>  <JOURNAL>
Bioorg.Med.Chem.Lett.

>  <YEAR>
2008

>  <VOLUME>
18

>  <FIRST_PAGE>
414

>  <Company>
Schering

>  <Resolution>
1.5

>  <idx>
25

>  <Model>
Train

>  <target>
8.1549015

>  <des_pred_mlr>
7.1690502

>  <RF_Canvas>
7.8850107

>  <DNN_Canvas>
7.6151996

>  <pred_CoMFA>
7.1348

>  <pred_COMSIA>
6.7921

>  <pred_abm5>
7.3250775

>  <pred_ff8>
7.1586938

>  <pred_gau6>
6.7869453

>  <CID>
BACE_25

>  <active>
1

>  <des_class_bayes>
1

>  <maacs_class_bayes>
1

>  <radial_class_bayes>
1

>  <dend_class_bayes>
1

>  <molprint_class_bayes>
1

>  <RF_canvas>
1

>  <DNN_canvas>
1

$$$$
2QZL_3635
  MOE2015           3D

 91 93  0  0  1  0  0  0  0  0999 V2000
   29.1010   15.0390   26.6590 O   0  0  0  0  0  0  0  0  0  0  0  0
   28.3880   16.2770   26.6190 S   0  0  0  0  0  0  0  0  0  0  0  0
   28.1680   16.8020   27.9310 O   0  0  0  0  0  0  0  0  0  0  0  0
   29.3610   17.3420   25.7710 C   0  0  0  0  0  0  0  0  0  0  0  0
   27.0400   16.1180   25.8800 N   0  0  0  0  0  0  0  0  0  0  0  0
   25.9720   17.0850   26.1350 C   0  0  0  0  0  0  0  0  0  0  0  0
   26.7850   15.0770   24.9510 C   0  0  0  0  0  0  0  0  0  0  0  0
   27.7850   14.6070   24.0880 C   0  0  0  0  0  0  0  0  0  0  0  0
   27.5170   13.5760   23.1850 C   0  0  0  0  0  0  0  0  0  0  0  0
   28.5790   13.0390   22.2690 C   0  0  0  0  0  0  0  0  0  0  0  0
   29.3870   13.7930   21.7340 O   0  0  0  0  0  0  0  0  0  0  0  0
   28.5910   11.7110   22.1010 N   0  0  0  0  0  0  0  0  0  0  0  0
   29.5810   10.9790   21.3210 C   0  0  3  0  0  0  0  0  0  0  0  0
   28.8790   10.1110   20.2730 C   0  0  0  0  0  0  0  0  0  0  0  0
   30.4750   10.1730   22.1970 C   0  0  0  0  0  0  0  0  0  0  0  0
   29.9680    9.1990   23.0600 C   0  0  0  0  0  0  0  0  0  0  0  0
   30.8310    8.4590   23.8710 C   0  0  0  0  0  0  0  0  0  0  0  0
   31.8570   10.3970   22.1550 C   0  0  0  0  0  0  0  0  0  0  0  0
   32.7210    9.6540   22.9610 C   0  0  0  0  0  0  0  0  0  0  0  0
   32.2050    8.6900   23.8200 C   0  0  0  0  0  0  0  0  0  0  0  0
   33.0320    7.9690   24.6000 F   0  0  0  0  0  0  0  0  0  0  0  0
   25.5030   14.5050   24.8940 C   0  0  0  0  0  0  0  0  0  0  0  0
   25.2290   13.4760   23.9920 C   0  0  0  0  0  0  0  0  0  0  0  0
   26.2360   13.0200   23.1400 C   0  0  0  0  0  0  0  0  0  0  0  0
   23.8710   12.8430   23.9280 C   0  0  0  0  0  0  0  0  0  0  0  0
   22.8590   13.5100   24.0590 O   0  0  0  0  0  0  0  0  0  0  0  0
   23.8250   11.5280   23.7380 N   0  0  0  0  0  0  0  0  0  0  0  0
   22.6240   10.8470   23.3010 C   0  0  3  0  0  0  0  0  0  0  0  0
   22.9110    9.9030   22.1310 C   0  0  0  0  0  0  0  0  0  0  0  0
   23.6760   10.5460   20.9840 C   0  0  0  0  0  0  0  0  0  0  0  0
   23.4370   11.8640   20.5790 C   0  0  0  0  0  0  0  0  0  0  0  0
   24.1630   12.4250   19.5220 C   0  0  0  0  0  0  0  0  0  0  0  0
   25.1290   11.6720   18.8580 C   0  0  0  0  0  0  0  0  0  0  0  0
   25.3780   10.3590   19.2570 C   0  0  0  0  0  0  0  0  0  0  0  0
   24.6450    9.8010   20.3150 C   0  0  0  0  0  0  0  0  0  0  0  0
   22.0850   10.0240   24.4650 C   0  0  0  0  0  0  0  0  0  0  0  0
   21.7720   10.8850   25.5980 N   0  3  0  0  0  0  0  0  0  0  0  0
   20.4420   10.7740   26.1930 C   0  0  3  0  0  0  0  0  0  0  0  0
   20.3860   11.5710   27.4910 C   0  0  0  0  0  0  0  0  0  0  0  0
   19.3750   11.2470   25.2400 C   0  0  0  0  0  0  0  0  0  0  0  0
   19.5410   12.2950   24.6300 O   0  0  0  0  0  0  0  0  0  0  0  0
   18.2770   10.5030   25.0890 N   0  0  0  0  0  0  0  0  0  0  0  0
   17.1420   11.0000   24.3080 C   0  0  0  0  0  0  0  0  0  0  0  0
   16.0850    9.9480   23.9690 C   0  0  0  0  0  0  0  0  0  0  0  0
   15.5230    9.2600   25.2080 C   0  0  0  0  0  0  0  0  0  0  0  0
   14.9530   10.5490   23.1440 C   0  0  0  0  0  0  0  0  0  0  0  0
   30.3130   17.4560   26.2900 H   0  0  0  0  0  0  0  0  0  0  0  0
   28.8660   18.3110   25.7020 H   0  0  0  0  0  0  0  0  0  0  0  0
   29.5380   16.9530   24.7680 H   0  0  0  0  0  0  0  0  0  0  0  0
   26.3130   17.8190   26.8650 H   0  0  0  0  0  0  0  0  0  0  0  0
   25.0960   16.5650   26.5240 H   0  0  0  0  0  0  0  0  0  0  0  0
   25.7110   17.5910   25.2060 H   0  0  0  0  0  0  0  0  0  0  0  0
   28.7710   15.0460   24.1220 H   0  0  0  0  0  0  0  0  0  0  0  0
   27.8600   11.1770   22.5480 H   0  0  0  0  0  0  0  0  0  0  0  0
   30.2170   11.6960   20.8010 H   0  0  0  0  0  0  0  0  0  0  0  0
   28.2370    9.3860   20.7730 H   0  0  0  0  0  0  0  0  0  0  0  0
   29.6250    9.5860   19.6770 H   0  0  0  0  0  0  0  0  0  0  0  0
   28.2750   10.7440   19.6230 H   0  0  0  0  0  0  0  0  0  0  0  0
   28.9040    9.0170   23.1000 H   0  0  0  0  0  0  0  0  0  0  0  0
   30.4340    7.7080   24.5380 H   0  0  0  0  0  0  0  0  0  0  0  0
   32.2570   11.1510   21.4930 H   0  0  0  0  0  0  0  0  0  0  0  0
   33.7860    9.8270   22.9180 H   0  0  0  0  0  0  0  0  0  0  0  0
   24.7250   14.8640   25.5520 H   0  0  0  0  0  0  0  0  0  0  0  0
   26.0230   12.2280   22.4380 H   0  0  0  0  0  0  0  0  0  0  0  0
   24.6590   10.9830   23.9050 H   0  0  0  0  0  0  0  0  0  0  0  0
   21.9020   11.5950   22.9730 H   0  0  0  0  0  0  0  0  0  0  0  0
   21.9590    9.5380   21.7450 H   0  0  0  0  0  0  0  0  0  0  0  0
   23.4970    9.0640   22.5050 H   0  0  0  0  0  0  0  0  0  0  0  0
   22.6870   12.4530   21.0860 H   0  0  0  0  0  0  0  0  0  0  0  0
   23.9740   13.4450   19.2200 H   0  0  0  0  0  0  0  0  0  0  0  0
   25.6830   12.1030   18.0370 H   0  0  0  0  0  0  0  0  0  0  0  0
   26.1330    9.7740   18.7530 H   0  0  0  0  0  0  0  0  0  0  0  0
   24.8340    8.7810   20.6150 H   0  0  0  0  0  0  0  0  0  0  0  0
   22.8360    9.2940   24.7660 H   0  0  0  0  0  0  0  0  0  0  0  0
   21.1800    9.5050   24.1480 H   0  0  0  0  0  0  0  0  0  0  0  0
   21.8850   11.8400   25.2900 H   0  0  0  0  0  0  0  0  0  0  0  0
   22.4440   10.6830   26.3240 H   0  0  0  0  0  0  0  0  0  0  0  0
   20.2520    9.7230   26.4100 H   0  0  0  0  0  0  0  0  0  0  0  0
   20.5760   12.6230   27.2800 H   0  0  0  0  0  0  0  0  0  0  0  0
   21.1430   11.1970   28.1800 H   0  0  0  0  0  0  0  0  0  0  0  0
   19.3990   11.4630   27.9410 H   0  0  0  0  0  0  0  0  0  0  0  0
   18.2280    9.5890   25.5170 H   0  0  0  0  0  0  0  0  0  0  0  0
   17.5270   11.4070   23.3730 H   0  0  0  0  0  0  0  0  0  0  0  0
   16.6590   11.7930   24.8790 H   0  0  0  0  0  0  0  0  0  0  0  0
   16.5910    9.1880   23.3750 H   0  0  0  0  0  0  0  0  0  0  0  0
   15.0080    9.9930   25.8280 H   0  0  0  0  0  0  0  0  0  0  0  0
   16.3380    8.8120   25.7760 H   0  0  0  0  0  0  0  0  0  0  0  0
   14.8210    8.4830   24.9050 H   0  0  0  0  0  0  0  0  0  0  0  0
   14.4410   11.3110   23.7310 H   0  0  0  0  0  0  0  0  0  0  0  0
   14.2470    9.7650   22.8710 H   0  0  0  0  0  0  0  0  0  0  0  0
   15.3620   11.0010   22.2400 H   0  0  0  0  0  0  0  0  0  0  0  0
  1  2  2  0  0  0  0
  2  3  2  0  0  0  0
  2  4  1  0  0  0  0
  2  5  1  0  0  0  0
  4 47  1  0  0  0  0
  4 48  1  0  0  0  0
  4 49  1  0  0  0  0
  5  6  1  0  0  0  0
  5  7  1  0  0  0  0
  6 50  1  0  0  0  0
  6 51  1  0  0  0  0
  6 52  1  0  0  0  0
  7  8  2  0  0  0  0
  7 22  1  0  0  0  0
  8  9  1  0  0  0  0
  8 53  1  0  0  0  0
  9 10  1  0  0  0  0
  9 24  2  0  0  0  0
 10 11  2  0  0  0  0
 10 12  1  0  0  0  0
 12 13  1  0  0  0  0
 12 54  1  0  0  0  0
 13 14  1  0  0  0  0
 13 15  1  0  0  0  0
 13 55  1  0  0  0  0
 14 56  1  0  0  0  0
 14 57  1  0  0  0  0
 14 58  1  0  0  0  0
 15 16  2  0  0  0  0
 15 18  1  0  0  0  0
 16 17  1  0  0  0  0
 16 59  1  0  0  0  0
 17 20  2  0  0  0  0
 17 60  1  0  0  0  0
 18 19  2  0  0  0  0
 18 61  1  0  0  0  0
 19 20  1  0  0  0  0
 19 62  1  0  0  0  0
 20 21  1  0  0  0  0
 22 23  2  0  0  0  0
 22 63  1  0  0  0  0
 23 24  1  0  0  0  0
 23 25  1  0  0  0  0
 24 64  1  0  0  0  0
 25 26  2  0  0  0  0
 25 27  1  0  0  0  0
 27 28  1  0  0  0  0
 27 65  1  0  0  0  0
 28 29  1  0  0  0  0
 28 36  1  0  0  0  0
 28 66  1  0  0  0  0
 29 30  1  0  0  0  0
 29 67  1  0  0  0  0
 29 68  1  0  0  0  0
 30 31  1  0  0  0  0
 30 35  2  0  0  0  0
 31 32  2  0  0  0  0
 31 69  1  0  0  0  0
 32 33  1  0  0  0  0
 32 70  1  0  0  0  0
 33 34  2  0  0  0  0
 33 71  1  0  0  0  0
 34 35  1  0  0  0  0
 34 72  1  0  0  0  0
 35 73  1  0  0  0  0
 36 37  1  0  0  0  0
 36 74  1  0  0  0  0
 36 75  1  0  0  0  0
 37 38  1  0  0  0  0
 37 76  1  0  0  0  0
 37 77  1  0  0  0  0
 38 39  1  0  0  0  0
 38 40  1  0  0  0  0
 38 78  1  0  0  0  0
 39 79  1  0  0  0  0
 39 80  1  0  0  0  0
 39 81  1  0  0  0  0
 40 41  2  0  0  0  0
 40 42  1  0  0  0  0
 42 43  1  0  0  0  0
 42 82  1  0  0  0  0
 43 44  1  0  0  0  0
 43 83  1  0  0  0  0
 43 84  1  0  0  0  0
 44 45  1  0  0  0  0
 44 46  1  0  0  0  0
 44 85  1  0  0  0  0
 45 86  1  0  0  0  0
 45 87  1  0  0  0  0
 45 88  1  0  0  0  0
 46 89  1  0  0  0  0
 46 90  1  0  0  0  0
 46 91  1  0  0  0  0
M  CHG  1  37   1
M  END
>  <PARENT_CMPD_ID>
2QZL

>  <STANDARD_TYPE>
IC50

>  <RELATION>
=

>  <STANDARD_VALUE>
0.0080000004

>  <STANDARD_UNITS>
uM

>  <COMPOUND_KEY>
4b

>  <PUBMED_ID>
16690314

>  <JOURNAL>
Bioorg.Med.Chem.Lett.

>  <YEAR>
2006

>  <VOLUME>
16

>  <FIRST_PAGE>
3635

>  <Company>
Merck

>  <Resolution>
1.8

>  <idx>
26

>  <Model>
Train

>  <target>
8.0969095

>  <des_pred_mlr>
7.6364398

>  <RF_Canvas>
7.8664556

>  <DNN_Canvas>
7.5815554

>  <pred_CoMFA>
7.8927002

>  <pred_COMSIA>
8.1947002

>  <pred_abm5>
8.1831989

>  <pred_ff8>
9.1703482

>  <pred_gau6>
7.837821

>  <CID>
BACE_26

>  <active>
1

>  <des_class_bayes>
1

>  <maacs_class_bayes>
1

>  <radial_class_bayes>
1

>  <dend_class_bayes>
1

>  <molprint_class_bayes>
1

>  <RF_canvas>
1

>  <DNN_canvas>
1

$$$$
4I1C_3075
  MOE2015           3D

 61 64  0  0  1  0  0  0  0  0999 V2000
   21.2220   15.2980   17.4690 Cl  0  0  0  0  0  0  0  0  0  0  0  0
   22.3940   14.6740   18.6310 C   0  0  0  0  0  0  0  0  0  0  0  0
   23.5290   15.4210   18.9860 C   0  0  0  0  0  0  0  0  0  0  0  0
   24.4350   14.8300   19.8960 C   0  0  0  0  0  0  0  0  0  0  0  0
   24.1930   13.5400   20.3800 C   0  0  0  0  0  0  0  0  0  0  0  0
   25.1330   12.8620   21.3430 C   0  0  0  0  0  0  0  0  0  0  0  0
   25.0840   11.5880   21.4630 N   0  3  0  0  0  0  0  0  0  0  0  0
   24.1930   10.7410   20.7110 C   0  0  0  0  0  0  0  0  0  0  0  0
   23.9520    9.4280   21.4870 C   0  0  0  0  0  0  0  0  0  0  0  0
   24.8160   10.4240   19.3220 C   0  0  0  0  0  0  0  0  0  0  0  0
   22.8550   11.4420   20.5090 C   0  0  0  0  0  0  0  0  0  0  0  0
   23.0670   12.8200   19.9780 C   0  0  0  0  0  0  0  0  0  0  0  0
   22.1490   13.3710   19.1050 C   0  0  0  0  0  0  0  0  0  0  0  0
   26.0150   13.5960   22.0040 N   0  0  0  0  0  0  0  0  0  0  0  0
   27.2180   13.1520   22.7560 C   0  0  3  0  0  0  0  0  0  0  0  0
   28.5300   13.4520   22.0040 C   0  0  0  0  0  0  0  0  0  0  0  0
   27.2990   13.9260   24.0450 C   0  0  0  0  0  0  0  0  0  0  0  0
   28.2190   13.7410   24.8740 O   0  0  0  0  0  0  0  0  0  0  0  0
   26.4140   14.7880   24.1830 O   0  5  0  0  0  0  0  0  0  0  0  0
   28.5610   12.4320   20.8890 C   0  0  3  0  0  0  0  0  0  0  0  0
   28.1800   12.5510   19.4410 C   0  0  0  0  0  0  0  0  0  0  0  0
   28.3050   11.4670   18.6050 C   0  0  0  0  0  0  0  0  0  0  0  0
   28.8880   10.1980   19.6070 S   0  0  0  0  0  0  0  0  0  0  0  0
   29.0190   11.0510   21.1270 C   0  0  3  0  0  0  0  0  0  0  0  0
   29.4800   10.4290   22.4460 C   0  0  0  0  0  0  0  0  0  0  0  0
   29.7900    8.9530   22.4260 C   0  0  0  0  0  0  0  0  0  0  0  0
   30.5100    8.5250   23.7030 C   0  0  0  0  0  0  0  0  0  0  0  0
   27.6600   13.7920   18.8080 C   0  0  0  0  0  0  0  0  0  0  0  0
   27.9210   15.0440   19.2610 C   0  0  0  0  0  0  0  0  0  0  0  0
   27.2040   15.8370   18.4500 N   0  0  0  0  0  0  0  0  0  0  0  0
   26.4970   15.0590   17.5300 N   0  0  0  0  0  0  0  0  0  0  0  0
   26.7710   13.7580   17.7690 C   0  0  0  0  0  0  0  0  0  0  0  0
   23.7030   16.4070   18.5800 H   0  0  0  0  0  0  0  0  0  0  0  0
   25.3120   15.3730   20.2170 H   0  0  0  0  0  0  0  0  0  0  0  0
   25.7080   11.1500   22.1250 H   0  0  0  0  0  0  0  0  0  0  0  0
   24.9020    8.9160   21.6390 H   0  0  0  0  0  0  0  0  0  0  0  0
   23.2810    8.7870   20.9160 H   0  0  0  0  0  0  0  0  0  0  0  0
   23.5030    9.6550   22.4540 H   0  0  0  0  0  0  0  0  0  0  0  0
   25.7740    9.9220   19.4590 H   0  0  0  0  0  0  0  0  0  0  0  0
   24.9680   11.3520   18.7710 H   0  0  0  0  0  0  0  0  0  0  0  0
   24.1430    9.7750   18.7610 H   0  0  0  0  0  0  0  0  0  0  0  0
   22.3320   11.5010   21.4640 H   0  0  0  0  0  0  0  0  0  0  0  0
   22.2540   10.8720   19.8000 H   0  0  0  0  0  0  0  0  0  0  0  0
   21.2730   12.8210   18.7960 H   0  0  0  0  0  0  0  0  0  0  0  0
   25.8480   14.5920   21.9960 H   0  0  0  0  0  0  0  0  0  0  0  0
   27.1160   12.0770   22.9030 H   0  0  0  0  0  0  0  0  0  0  0  0
   29.3900   13.3300   22.6630 H   0  0  0  0  0  0  0  0  0  0  0  0
   28.5220   14.4650   21.6010 H   0  0  0  0  0  0  0  0  0  0  0  0
   29.5810   12.7290   20.6450 H   0  0  0  0  0  0  0  0  0  0  0  0
   28.0850   11.4220   17.5490 H   0  0  0  0  0  0  0  0  0  0  0  0
   30.0440   11.3370   20.8900 H   0  0  0  0  0  0  0  0  0  0  0  0
   28.6920   10.5910   23.1810 H   0  0  0  0  0  0  0  0  0  0  0  0
   30.3830   10.9520   22.7600 H   0  0  0  0  0  0  0  0  0  0  0  0
   30.4260    8.7340   21.5680 H   0  0  0  0  0  0  0  0  0  0  0  0
   28.8580    8.3950   22.3390 H   0  0  0  0  0  0  0  0  0  0  0  0
   31.4440    9.0800   23.7970 H   0  0  0  0  0  0  0  0  0  0  0  0
   30.7250    7.4570   23.6590 H   0  0  0  0  0  0  0  0  0  0  0  0
   29.8760    8.7330   24.5650 H   0  0  0  0  0  0  0  0  0  0  0  0
   28.5580   15.3350   20.0830 H   0  0  0  0  0  0  0  0  0  0  0  0
   25.8840   15.4100   16.8080 H   0  0  0  0  0  0  0  0  0  0  0  0
   26.3790   12.8910   17.2580 H   0  0  0  0  0  0  0  0  0  0  0  0
  1  2  1  0  0  0  0
  2  3  1  0  0  0  0
  2 13  2  0  0  0  0
  3  4  2  0  0  0  0
  3 33  1  0  0  0  0
  4  5  1  0  0  0  0
  4 34  1  0  0  0  0
  5  6  1  0  0  0  0
  5 12  2  0  0  0  0
  6  7  2  0  0  0  0
  6 14  1  0  0  0  0
  7  8  1  0  0  0  0
  7 35  1  0  0  0  0
  8  9  1  0  0  0  0
  8 10  1  0  0  0  0
  8 11  1  0  0  0  0
  9 36  1  0  0  0  0
  9 37  1  0  0  0  0
  9 38  1  0  0  0  0
 10 39  1  0  0  0  0
 10 40  1  0  0  0  0
 10 41  1  0  0  0  0
 11 12  1  0  0  0  0
 11 42  1  0  0  0  0
 11 43  1  0  0  0  0
 12 13  1  0  0  0  0
 13 44  1  0  0  0  0
 14 15  1  0  0  0  0
 14 45  1  0  0  0  0
 15 16  1  0  0  0  0
 15 17  1  0  0  0  0
 15 46  1  0  0  0  0
 16 20  1  0  0  0  0
 16 47  1  0  0  0  0
 16 48  1  0  0  0  0
 17 18  2  0  0  0  0
 17 19  1  0  0  0  0
 20 21  1  0  0  0  0
 20 24  1  0  0  0  0
 20 49  1  0  0  0  0
 21 22  2  0  0  0  0
 21 28  1  0  0  0  0
 22 23  1  0  0  0  0
 22 50  1  0  0  0  0
 23 24  1  0  0  0  0
 24 25  1  0  0  0  0
 24 51  1  0  0  0  0
 25 26  1  0  0  0  0
 25 52  1  0  0  0  0
 25 53  1  0  0  0  0
 26 27  1  0  0  0  0
 26 54  1  0  0  0  0
 26 55  1  0  0  0  0
 27 56  1  0  0  0  0
 27 57  1  0  0  0  0
 27 58  1  0  0  0  0
 28 29  1  0  0  0  0
 28 32  2  0  0  0  0
 29 30  2  0  0  0  0
 29 59  1  0  0  0  0
 30 31  1  0  0  0  0
 31 32  1  0  0  0  0
 31 60  1  0  0  0  0
 32 61  1  0  0  0  0
M  CHG  1   7   1
M  CHG  1  19  -1
M  END
>  <PARENT_CMPD_ID>
4I1C

>  <STANDARD_TYPE>
IC50

>  <RELATION>
=

>  <STANDARD_VALUE>
0.0080000004

>  <STANDARD_UNITS>
uM

>  <COMPOUND_KEY>
8

>  <PUBMED_ID>
23570791

>  <JOURNAL>
Bioorg.Med.Chem.Lett.

>  <YEAR>
2013

>  <VOLUME>
23

>  <FIRST_PAGE>
3075

>  <Company>
Elan

>  <Resolution>
2

>  <idx>
27

>  <Model>
Train

>  <target>
8.0969095

>  <des_pred_mlr>
6.00489

>  <RF_Canvas>
7.6587563

>  <DNN_Canvas>
7.6770296

>  <pred_CoMFA>
7.9696002

>  <pred_COMSIA>
7.2852998

>  <pred_abm5>
7.5659256

>  <pred_ff8>
5.7867703

>  <pred_gau6>
7.4796948

>  <CID>
BACE_27

>  <active>
1

>  <des_class_bayes>
0

>  <maacs_class_bayes>
1

>  <radial_class_bayes>
1

>  <dend_class_bayes>
1

>  <molprint_class_bayes>
1

>  <RF_canvas>
1

>  <DNN_canvas>
1

$$$$
4FRK_9156
  MOE2015           3D

 52 56  0  0  1  0  0  0  0  0999 V2000
   28.2110   11.6570   19.6280 C   0  0  0  0  0  0  0  0  0  0  0  0
   27.8690   12.3540   18.8770 H   0  0  0  0  0  0  0  0  0  0  0  0
   29.4900   11.6390   19.9820 N   0  0  0  0  0  0  0  0  0  0  0  0
   29.9240   10.8010   20.9200 C   0  0  0  0  0  0  0  0  0  0  0  0
   30.9690   10.8050   21.1930 H   0  0  0  0  0  0  0  0  0  0  0  0
   29.0980    9.9640   21.5240 N   0  0  0  0  0  0  0  0  0  0  0  0
   27.8140    9.9140   21.2000 C   0  0  0  0  0  0  0  0  0  0  0  0
   27.1600    9.2080   21.6890 H   0  0  0  0  0  0  0  0  0  0  0  0
   27.3080   10.7760   20.2250 C   0  0  0  0  0  0  0  0  0  0  0  0
   25.9450   10.7900   19.8760 C   0  0  0  0  0  0  0  0  0  0  0  0
   24.9740   10.7650   20.8850 C   0  0  0  0  0  0  0  0  0  0  0  0
   25.2820   10.7210   21.9190 H   0  0  0  0  0  0  0  0  0  0  0  0
   23.6090   10.7960   20.5730 C   0  0  0  0  0  0  0  0  0  0  0  0
   25.5440   10.8610   18.5390 C   0  0  0  0  0  0  0  0  0  0  0  0
   26.2840   10.8970   17.7530 H   0  0  0  0  0  0  0  0  0  0  0  0
   24.1730   10.8850   18.2190 C   0  0  0  0  0  0  0  0  0  0  0  0
   23.8650   10.9220   17.1840 H   0  0  0  0  0  0  0  0  0  0  0  0
   23.2080   10.8610   19.2280 C   0  0  0  0  0  0  0  0  0  0  0  0
   21.8920   10.9080   18.8440 O   0  0  0  0  0  0  0  0  0  0  0  0
   20.8950   10.7860   19.7500 C   0  0  0  0  0  0  0  0  0  0  0  0
   19.6090   10.7540   19.2370 C   0  0  0  0  0  0  0  0  0  0  0  0
   19.4530   10.8200   18.1700 H   0  0  0  0  0  0  0  0  0  0  0  0
   18.5160   10.6370   20.0920 C   0  0  0  0  0  0  0  0  0  0  0  0
   17.5150   10.6030   19.6890 H   0  0  0  0  0  0  0  0  0  0  0  0
   18.7180   10.5640   21.4760 C   0  0  0  0  0  0  0  0  0  0  0  0
   17.5960   10.4210   22.2410 O   0  0  0  0  0  0  0  0  0  0  0  0
   17.5980   10.9360   23.5290 C   0  0  0  0  0  0  0  0  0  0  0  0
   17.9240   11.9760   23.5420 H   0  0  0  0  0  0  0  0  0  0  0  0
   18.2310   10.3480   24.1930 H   0  0  0  0  0  0  0  0  0  0  0  0
   16.1110   10.8070   23.9080 C   0  0  0  0  0  0  0  0  0  0  0  0
   15.5150   10.9400   23.0050 H   0  0  0  0  0  0  0  0  0  0  0  0
   15.7600   11.8830   24.9220 C   0  0  0  0  0  0  0  0  0  0  0  0
   16.3600   11.7440   25.8210 H   0  0  0  0  0  0  0  0  0  0  0  0
   14.7020   11.8120   25.1760 H   0  0  0  0  0  0  0  0  0  0  0  0
   15.9660   12.8650   24.4960 H   0  0  0  0  0  0  0  0  0  0  0  0
   15.7780    9.4220   24.4590 C   0  0  0  0  0  0  0  0  0  0  0  0
   16.3540    9.2440   25.3670 H   0  0  0  0  0  0  0  0  0  0  0  0
   16.0290    8.6650   23.7160 H   0  0  0  0  0  0  0  0  0  0  0  0
   14.7140    9.3680   24.6880 H   0  0  0  0  0  0  0  0  0  0  0  0
   20.0200   10.5910   22.0000 C   0  0  0  0  0  0  0  0  0  0  0  0
   20.1760   10.5190   23.0660 H   0  0  0  0  0  0  0  0  0  0  0  0
   21.1190   10.7120   21.1360 C   0  0  0  0  0  0  0  0  0  0  0  0
   22.5540   10.7540   21.7070 C   0  0  3  0  0  0  0  0  0  0  0  0
   22.7870   11.9290   22.6730 C   0  0  0  0  0  0  0  0  0  0  0  0
   21.8730   12.5080   22.8040 H   0  0  0  0  0  0  0  0  0  0  0  0
   23.5800   12.5800   22.3040 H   0  0  0  0  0  0  0  0  0  0  0  0
   23.1840   11.2900   23.9370 O   0  0  0  0  0  0  0  0  0  0  0  0
   22.9900    9.9410   23.8260 C   0  0  0  0  0  0  0  0  0  0  0  0
   23.1100    9.1000   24.8630 N   0  0  0  0  0  0  0  0  0  0  0  0
   22.9530    8.1110   24.7320 H   0  0  0  0  0  0  0  0  0  0  0  0
   23.3570    9.4550   25.7750 H   0  0  0  0  0  0  0  0  0  0  0  0
   22.6680    9.5470   22.5970 N   0  0  0  0  0  0  0  0  0  0  0  0
  1  2  1  0  0  0  0
  1  3  1  0  0  0  0
  1  9  2  0  0  0  0
  3  4  2  0  0  0  0
  4  5  1  0  0  0  0
  4  6  1  0  0  0  0
  6  7  2  0  0  0  0
  7  8  1  0  0  0  0
  7  9  1  0  0  0  0
  9 10  1  0  0  0  0
 10 11  2  0  0  0  0
 10 14  1  0  0  0  0
 11 12  1  0  0  0  0
 11 13  1  0  0  0  0
 13 18  2  0  0  0  0
 13 43  1  0  0  0  0
 14 15  1  0  0  0  0
 14 16  2  0  0  0  0
 16 17  1  0  0  0  0
 16 18  1  0  0  0  0
 18 19  1  0  0  0  0
 19 20  1  0  0  0  0
 20 21  1  0  0  0  0
 20 42  2  0  0  0  0
 21 22  1  0  0  0  0
 21 23  2  0  0  0  0
 23 24  1  0  0  0  0
 23 25  1  0  0  0  0
 25 26  1  0  0  0  0
 25 40  2  0  0  0  0
 26 27  1  0  0  0  0
 27 28  1  0  0  0  0
 27 29  1  0  0  0  0
 27 30  1  0  0  0  0
 30 31  1  0  0  0  0
 30 32  1  0  0  0  0
 30 36  1  0  0  0  0
 32 33  1  0  0  0  0
 32 34  1  0  0  0  0
 32 35  1  0  0  0  0
 36 37  1  0  0  0  0
 36 38  1  0  0  0  0
 36 39  1  0  0  0  0
 40 41  1  0  0  0  0
 40 42  1  0  0  0  0
 42 43  1  0  0  0  0
 43 44  1  0  0  0  0
 43 52  1  0  0  0  0
 44 45  1  0  0  0  0
 44 46  1  0  0  0  0
 44 47  1  0  0  0  0
 47 48  1  0  0  0  0
 48 49  1  0  0  0  0
 48 52  2  0  0  0  0
 49 50  1  0  0  0  0
 49 51  1  0  0  0  0
M  END
>  <PARENT_CMPD_ID>
4FRK

>  <STANDARD_TYPE>
IC50

>  <RELATION>
=

>  <STANDARD_VALUE>
0.0080000004

>  <STANDARD_UNITS>
uM

>  <COMPOUND_KEY>
11a

>  <PUBMED_ID>
22928914

>  <JOURNAL>
J.Med.Chem.

>  <YEAR>
2012

>  <VOLUME>
55

>  <FIRST_PAGE>
9156

>  <Company>
Amgen

>  <Resolution>
2.0999999

>  <idx>
28

>  <Model>
Train

>  <target>
8.0969095

>  <des_pred_mlr>
7.04636

>  <RF_Canvas>
7.4993978

>  <DNN_Canvas>
6.7986889

>  <pred_CoMFA>
7.8860002

>  <pred_COMSIA>
8.0966997

>  <pred_abm5>
7.4219174

>  <pred_ff8>
5.6813536

>  <pred_gau6>
8.0517044

>  <CID>
BACE_28

>  <active>
1

>  <des_class_bayes>
0

>  <maacs_class_bayes>
0

>  <radial_class_bayes>
1

>  <dend_class_bayes>
1

>  <molprint_class_bayes>
1

>  <RF_canvas>
1

>  <DNN_canvas>
1

$$$$
3SKG_6909
  MOE2015           3D

 95 99  0  0  1  0  0  0  0  0999 V2000
   25.4040   20.3870   25.2290 C   0  0  0  0  0  0  0  0  0  0  0  0
   25.3900   21.4600   25.1100 H   0  0  0  0  0  0  0  0  0  0  0  0
   17.1250   13.0570   26.9570 C   0  0  0  0  0  0  0  0  0  0  0  0
   16.1740   13.4740   26.6600 H   0  0  0  0  0  0  0  0  0  0  0  0
   17.4440   12.9360   28.3940 C   0  0  0  0  0  0  0  0  0  0  0  0
   16.7830   13.2700   29.1800 H   0  0  0  0  0  0  0  0  0  0  0  0
   24.7100   19.8080   26.3260 C   0  0  0  0  0  0  0  0  0  0  0  0
   24.1640   20.4060   27.0400 H   0  0  0  0  0  0  0  0  0  0  0  0
   26.1300   19.5830   24.2640 C   0  0  0  0  0  0  0  0  0  0  0  0
   26.6460   20.0670   23.4480 H   0  0  0  0  0  0  0  0  0  0  0  0
   17.9900   12.6600   26.0130 C   0  0  0  0  0  0  0  0  0  0  0  0
   17.7110   12.7940   24.9780 H   0  0  0  0  0  0  0  0  0  0  0  0
   18.6360   12.3710   28.6240 C   0  0  0  0  0  0  0  0  0  0  0  0
   18.9230   12.2210   29.6540 H   0  0  0  0  0  0  0  0  0  0  0  0
   24.7800   18.3870   26.4240 C   0  0  0  0  0  0  0  0  0  0  0  0
   24.2830   17.8880   27.2430 H   0  0  0  0  0  0  0  0  0  0  0  0
   26.1700   18.1870   24.3770 C   0  0  0  0  0  0  0  0  0  0  0  0
   26.7000   17.5790   23.6580 H   0  0  0  0  0  0  0  0  0  0  0  0
   25.0690   10.5070   20.2620 C   0  0  0  0  0  0  0  0  0  0  0  0
   25.7550    9.7530   20.6180 H   0  0  0  0  0  0  0  0  0  0  0  0
   23.1240   11.7620   20.4440 C   0  0  0  0  0  0  0  0  0  0  0  0
   22.2250   12.0200   20.9840 H   0  0  0  0  0  0  0  0  0  0  0  0
   24.4980   12.1410   18.5340 C   0  0  0  0  0  0  0  0  0  0  0  0
   24.7110   12.6320   17.5960 H   0  0  0  0  0  0  0  0  0  0  0  0
   19.3020   12.0500   26.3050 C   0  0  0  0  0  0  0  0  0  0  0  0
   19.6180   11.9240   27.5530 C   0  0  0  0  0  0  0  0  0  0  0  0
   25.4930   17.6110   25.4630 C   0  0  0  0  0  0  0  0  0  0  0  0
   23.9450   10.7950   20.9700 C   0  0  0  0  0  0  0  0  0  0  0  0
   25.3340   11.1920   19.0690 C   0  0  0  0  0  0  0  0  0  0  0  0
   23.3880   12.4220   19.2600 C   0  0  0  0  0  0  0  0  0  0  0  0
   27.1760   13.4810   23.7880 C   0  0  0  0  0  0  0  0  0  0  0  0
   29.5920   15.1570   23.0220 C   0  0  0  0  0  0  0  0  0  0  0  0
   23.7880   13.1820   23.7990 C   0  0  0  0  0  0  0  0  0  0  0  0
   20.1430   11.5960   25.1520 C   0  0  0  0  0  0  0  0  0  0  0  0
   20.2660   12.4470   24.4820 H   0  0  0  0  0  0  0  0  0  0  0  0
   19.5950   10.8060   24.6390 H   0  0  0  0  0  0  0  0  0  0  0  0
   20.9600   11.3460   27.9770 C   0  0  0  0  0  0  0  0  0  0  0  0
   20.7950   10.7120   28.8480 H   0  0  0  0  0  0  0  0  0  0  0  0
   21.6140   12.1750   28.2500 H   0  0  0  0  0  0  0  0  0  0  0  0
   27.3760   13.9370   21.3510 C   0  0  0  0  0  0  0  0  0  0  0  0
   27.9240   14.8250   21.0380 H   0  0  0  0  0  0  0  0  0  0  0  0
   27.2780   13.2550   20.5070 H   0  0  0  0  0  0  0  0  0  0  0  0
   26.0100   14.2920   21.9640 C   0  0  0  0  0  0  0  0  0  0  0  0
   25.2350   13.6800   21.5030 H   0  0  0  0  0  0  0  0  0  0  0  0
   25.7950   15.3460   21.7870 H   0  0  0  0  0  0  0  0  0  0  0  0
   21.5570   11.0490   25.4720 C   0  0  3  0  0  0  0  0  0  0  0  0
   22.1620   11.9520   25.3940 H   0  0  0  0  0  0  0  0  0  0  0  0
   28.0390   13.2480   22.5810 C   0  0  3  0  0  0  0  0  0  0  0  0
   28.6110   16.3000   23.0760 C   0  0  0  0  0  0  0  0  0  0  0  0
   27.6020   15.9210   22.9160 H   0  0  0  0  0  0  0  0  0  0  0  0
   28.8540   17.0250   22.2990 H   0  0  0  0  0  0  0  0  0  0  0  0
   28.6670   16.7810   24.0520 H   0  0  0  0  0  0  0  0  0  0  0  0
   30.3030   11.3880   21.1100 C   0  0  0  0  0  0  0  0  0  0  0  0
   30.7540   11.2530   20.1270 H   0  0  0  0  0  0  0  0  0  0  0  0
   30.5110   10.5150   21.7280 H   0  0  0  0  0  0  0  0  0  0  0  0
   30.7230   12.2760   21.5830 H   0  0  0  0  0  0  0  0  0  0  0  0
   28.4760   10.1500   20.5930 C   0  0  0  0  0  0  0  0  0  0  0  0
   28.8630    9.9330   19.5970 H   0  0  0  0  0  0  0  0  0  0  0  0
   27.3940   10.0220   20.5980 H   0  0  0  0  0  0  0  0  0  0  0  0
   28.9260    9.4680   21.3140 H   0  0  0  0  0  0  0  0  0  0  0  0
   25.5270   16.0950   25.6310 C   0  0  0  0  0  0  0  0  0  0  0  0
   25.2070   15.8190   26.6360 H   0  0  0  0  0  0  0  0  0  0  0  0
   26.5340   15.7180   25.4540 H   0  0  0  0  0  0  0  0  0  0  0  0
   23.5730   10.0500   22.2510 C   0  0  0  0  0  0  0  0  0  0  0  0
   24.4790    9.6300   22.6870 H   0  0  0  0  0  0  0  0  0  0  0  0
   22.8840    9.2440   21.9990 H   0  0  0  0  0  0  0  0  0  0  0  0
   28.2340   11.7380   22.3400 C   0  0  0  0  0  0  0  0  0  0  0  0
   27.2740   11.2260   22.4090 H   0  0  0  0  0  0  0  0  0  0  0  0
   28.9180   11.3300   23.0840 H   0  0  0  0  0  0  0  0  0  0  0  0
   24.5660   15.5340   24.6000 C   0  0  0  0  0  0  0  0  0  0  0  0
   24.6370   16.1150   23.6810 H   0  0  0  0  0  0  0  0  0  0  0  0
   23.5470   15.5850   24.9850 H   0  0  0  0  0  0  0  0  0  0  0  0
   24.9330   14.0820   24.3160 C   0  0  3  0  0  0  0  0  0  0  0  0
   25.1870   13.6600   25.2890 H   0  0  0  0  0  0  0  0  0  0  0  0
   22.2720   10.1410   24.4040 C   0  0  3  0  0  0  0  0  0  0  0  0
   23.0370    9.6490   25.0050 H   0  0  0  0  0  0  0  0  0  0  0  0
   28.8120   11.5550   20.9610 C   0  0  0  0  0  0  0  0  0  0  0  0
   28.4850   12.3580   20.3000 H   0  0  0  0  0  0  0  0  0  0  0  0
   22.9060   10.9610   23.2860 C   0  0  3  0  0  0  0  0  0  0  0  0
   22.0890   11.5400   22.8550 H   0  0  0  0  0  0  0  0  0  0  0  0
   21.6720   10.5120   26.9120 N   0  3  0  0  0  0  0  0  0  0  0  0
   21.2800    9.5810   26.9310 H   0  0  0  0  0  0  0  0  0  0  0  0
   22.6520   10.4690   27.1520 H   0  0  0  0  0  0  0  0  0  0  0  0
   26.0430   14.0320   23.4270 N   0  0  0  0  0  0  0  0  0  0  0  0
   29.2970   13.8780   22.8240 N   0  0  0  0  0  0  0  0  0  0  0  0
   30.0880   13.2510   22.8490 H   0  0  0  0  0  0  0  0  0  0  0  0
   23.9500   11.8400   23.7680 N   0  0  0  0  0  0  0  0  0  0  0  0
   24.8210   11.4410   24.0890 H   0  0  0  0  0  0  0  0  0  0  0  0
   27.4660   13.1340   24.8960 O   0  0  0  0  0  0  0  0  0  0  0  0
   30.7590   15.4200   23.1830 O   0  0  0  0  0  0  0  0  0  0  0  0
   22.7030   13.6580   23.4710 O   0  0  0  0  0  0  0  0  0  0  0  0
   21.5030    9.0740   23.8350 O   0  0  0  0  0  0  0  0  0  0  0  0
   20.8140    9.4690   23.2950 H   0  0  0  0  0  0  0  0  0  0  0  0
   26.4680   10.9370   18.3800 F   0  0  0  0  0  0  0  0  0  0  0  0
   22.5470   13.3570   18.8440 F   0  0  0  0  0  0  0  0  0  0  0  0
  1  2  1  0  0  0  0
  1  7  2  0  0  0  0
  1  9  1  0  0  0  0
  3  4  1  0  0  0  0
  3  5  2  0  0  0  0
  3 11  1  0  0  0  0
  5  6  1  0  0  0  0
  5 13  1  0  0  0  0
  7  8  1  0  0  0  0
  7 15  1  0  0  0  0
  9 10  1  0  0  0  0
  9 17  2  0  0  0  0
 11 12  1  0  0  0  0
 11 25  2  0  0  0  0
 13 14  1  0  0  0  0
 13 26  2  0  0  0  0
 15 16  1  0  0  0  0
 15 27  2  0  0  0  0
 17 18  1  0  0  0  0
 17 27  1  0  0  0  0
 19 20  1  0  0  0  0
 19 28  2  0  0  0  0
 19 29  1  0  0  0  0
 21 22  1  0  0  0  0
 21 28  1  0  0  0  0
 21 30  2  0  0  0  0
 23 24  1  0  0  0  0
 23 29  2  0  0  0  0
 23 30  1  0  0  0  0
 25 26  1  0  0  0  0
 25 34  1  0  0  0  0
 26 37  1  0  0  0  0
 27 61  1  0  0  0  0
 28 64  1  0  0  0  0
 29 94  1  0  0  0  0
 30 95  1  0  0  0  0
 31 48  1  0  0  0  0
 31 84  1  0  0  0  0
 31 89  2  0  0  0  0
 32 49  1  0  0  0  0
 32 85  1  0  0  0  0
 32 90  2  0  0  0  0
 33 73  1  0  0  0  0
 33 87  1  0  0  0  0
 33 91  2  0  0  0  0
 34 35  1  0  0  0  0
 34 36  1  0  0  0  0
 34 46  1  0  0  0  0
 37 38  1  0  0  0  0
 37 39  1  0  0  0  0
 37 81  1  0  0  0  0
 40 41  1  0  0  0  0
 40 42  1  0  0  0  0
 40 43  1  0  0  0  0
 40 48  1  0  0  0  0
 43 44  1  0  0  0  0
 43 45  1  0  0  0  0
 43 84  1  0  0  0  0
 46 47  1  0  0  0  0
 46 75  1  0  0  0  0
 46 81  1  0  0  0  0
 48 67  1  0  0  0  0
 48 85  1  0  0  0  0
 49 50  1  0  0  0  0
 49 51  1  0  0  0  0
 49 52  1  0  0  0  0
 53 54  1  0  0  0  0
 53 55  1  0  0  0  0
 53 56  1  0  0  0  0
 53 77  1  0  0  0  0
 57 58  1  0  0  0  0
 57 59  1  0  0  0  0
 57 60  1  0  0  0  0
 57 77  1  0  0  0  0
 61 62  1  0  0  0  0
 61 63  1  0  0  0  0
 61 70  1  0  0  0  0
 64 65  1  0  0  0  0
 64 66  1  0  0  0  0
 64 79  1  0  0  0  0
 67 68  1  0  0  0  0
 67 69  1  0  0  0  0
 67 77  1  0  0  0  0
 70 71  1  0  0  0  0
 70 72  1  0  0  0  0
 70 73  1  0  0  0  0
 73 74  1  0  0  0  0
 73 84  1  0  0  0  0
 75 76  1  0  0  0  0
 75 79  1  0  0  0  0
 75 92  1  0  0  0  0
 77 78  1  0  0  0  0
 79 80  1  0  0  0  0
 79 87  1  0  0  0  0
 81 82  1  0  0  0  0
 81 83  1  0  0  0  0
 85 86  1  0  0  0  0
 87 88  1  0  0  0  0
 92 93  1  0  0  0  0
M  CHG  1  81   1
M  END
>  <PARENT_CMPD_ID>
3SKG

>  <STANDARD_TYPE>
IC50

>  <RELATION>
=

>  <STANDARD_VALUE>
0.0080000004

>  <STANDARD_UNITS>
uM

>  <COMPOUND_KEY>
14c

>  <PUBMED_ID>
21974952

>  <JOURNAL>
Bioorg.Med.Chem.Lett.

>  <YEAR>
2011

>  <VOLUME>
21

>  <FIRST_PAGE>
6909

>  <Company>
BMS

>  <Resolution>
2.8800001

>  <idx>
29

>  <Model>
Train

>  <target>
8.0969095

>  <des_pred_mlr>
7.4488502

>  <RF_Canvas>
8.0478649

>  <DNN_Canvas>
8.1643562

>  <pred_CoMFA>
8.0066004

>  <pred_COMSIA>
8.2289

>  <pred_abm5>
8.4074402

>  <pred_ff8>
7.7257657

>  <pred_gau6>
8.5088339

>  <CID>
BACE_29

>  <active>
1

>  <des_class_bayes>
1

>  <maacs_class_bayes>
1

>  <radial_class_bayes>
1

>  <dend_class_bayes>
1

>  <molprint_class_bayes>
1

>  <RF_canvas>
1

>  <DNN_canvas>
1

$$$$
4EXG_6721
  MOE2015           3D

 71 73  0  0  1  0  0  0  0  0999 V2000
   23.0540   13.3190   23.2180 O   0  0  0  0  0  0  0  0  0  0  0  0
   24.0630   12.6840   23.4830 C   0  0  0  0  0  0  0  0  0  0  0  0
   25.3260   13.4430   23.8950 C   0  0  0  0  0  0  0  0  0  0  0  0
   24.0960   11.3350   23.3740 N   0  0  0  0  0  0  0  0  0  0  0  0
   22.8670   10.5970   22.9330 C   0  0  3  0  0  0  0  0  0  0  0  0
   23.3890    9.6610   21.8600 C   0  0  0  0  0  0  0  0  0  0  0  0
   24.0270   10.3710   20.6750 C   0  0  0  0  0  0  0  0  0  0  0  0
   25.1830    9.8150   20.0990 C   0  0  0  0  0  0  0  0  0  0  0  0
   25.7740   10.4610   18.9970 C   0  0  0  0  0  0  0  0  0  0  0  0
   25.2610   11.6590   18.4840 C   0  0  0  0  0  0  0  0  0  0  0  0
   24.1290   12.2300   19.0920 C   0  0  0  0  0  0  0  0  0  0  0  0
   23.4990   11.5830   20.1770 C   0  0  0  0  0  0  0  0  0  0  0  0
   22.3190    9.8250   24.1640 C   0  0  3  0  0  0  0  0  0  0  0  0
   21.1950    9.0010   23.8140 O   0  0  0  0  0  0  0  0  0  0  0  0
   21.8300   10.8200   25.2170 C   0  0  0  0  0  0  0  0  0  0  0  0
   21.2850   10.0710   26.3260 N   0  3  0  0  0  0  0  0  0  0  0  0
   20.2470   10.7020   27.1820 C   0  0  3  0  0  0  0  0  0  0  0  0
   20.9240   11.8770   27.9100 C   0  0  0  0  0  0  0  0  0  0  0  0
   19.9010   12.8490   28.5630 C   0  0  0  0  0  0  0  0  0  0  0  0
   20.7230   13.9570   29.2470 C   0  0  0  0  0  0  0  0  0  0  0  0
   18.9400   12.0870   29.5110 C   0  0  0  0  0  0  0  0  0  0  0  0
   19.1750   11.2960   26.3550 C   0  0  0  0  0  0  0  0  0  0  0  0
   18.5490   10.5550   25.2710 C   0  0  0  0  0  0  0  0  0  0  0  0
   17.5820   11.4220   24.6530 C   0  0  0  0  0  0  0  0  0  0  0  0
   17.5130   13.0330   25.3960 S   0  0  0  0  0  0  0  0  0  0  0  0
   18.6760   12.6510   26.5340 C   0  0  0  0  0  0  0  0  0  0  0  0
   19.1280   13.4810   27.5180 O   0  0  0  0  0  0  0  0  0  0  0  0
   16.6430   11.1690   23.4900 C   0  0  0  0  0  0  0  0  0  0  0  0
   15.3010   10.5650   23.9180 C   0  0  0  0  0  0  0  0  0  0  0  0
   14.4820   11.5150   24.8210 C   0  0  0  0  0  0  0  0  0  0  0  0
   15.5230    9.2870   24.7100 C   0  0  0  0  0  0  0  0  0  0  0  0
   14.4520   10.2140   22.7030 C   0  0  0  0  0  0  0  0  0  0  0  0
   26.1280   12.7320   24.0950 H   0  0  0  0  0  0  0  0  0  0  0  0
   25.1230   14.0250   24.7940 H   0  0  0  0  0  0  0  0  0  0  0  0
   25.6270   14.1130   23.0890 H   0  0  0  0  0  0  0  0  0  0  0  0
   24.9430   10.8290   23.5880 H   0  0  0  0  0  0  0  0  0  0  0  0
   22.0560   11.2190   22.5540 H   0  0  0  0  0  0  0  0  0  0  0  0
   22.5560    9.0620   21.4920 H   0  0  0  0  0  0  0  0  0  0  0  0
   24.1360    9.0070   22.3100 H   0  0  0  0  0  0  0  0  0  0  0  0
   25.6110    8.9060   20.4960 H   0  0  0  0  0  0  0  0  0  0  0  0
   26.6460   10.0210   18.5350 H   0  0  0  0  0  0  0  0  0  0  0  0
   25.7270   12.1370   17.6350 H   0  0  0  0  0  0  0  0  0  0  0  0
   23.7390   13.1690   18.7270 H   0  0  0  0  0  0  0  0  0  0  0  0
   22.6160   12.0130   20.6250 H   0  0  0  0  0  0  0  0  0  0  0  0
   23.1310    9.2030   24.5410 H   0  0  0  0  0  0  0  0  0  0  0  0
   20.5020    9.5790   23.4880 H   0  0  0  0  0  0  0  0  0  0  0  0
   21.0590   11.4610   24.7900 H   0  0  0  0  0  0  0  0  0  0  0  0
   22.6630   11.4340   25.5600 H   0  0  0  0  0  0  0  0  0  0  0  0
   22.0590    9.8300   26.9290 H   0  0  0  0  0  0  0  0  0  0  0  0
   20.8810    9.2280   25.9430 H   0  0  0  0  0  0  0  0  0  0  0  0
   19.8280    9.9520   27.8530 H   0  0  0  0  0  0  0  0  0  0  0  0
   21.5240   12.4340   27.1900 H   0  0  0  0  0  0  0  0  0  0  0  0
   21.5720   11.4770   28.6900 H   0  0  0  0  0  0  0  0  0  0  0  0
   21.3240   13.5230   30.0460 H   0  0  0  0  0  0  0  0  0  0  0  0
   20.0490   14.7040   29.6650 H   0  0  0  0  0  0  0  0  0  0  0  0
   21.3780   14.4280   28.5140 H   0  0  0  0  0  0  0  0  0  0  0  0
   19.5150   11.6070   30.3030 H   0  0  0  0  0  0  0  0  0  0  0  0
   18.3970   11.3290   28.9460 H   0  0  0  0  0  0  0  0  0  0  0  0
   18.2320   12.7890   29.9510 H   0  0  0  0  0  0  0  0  0  0  0  0
   18.7700    9.5380   24.9820 H   0  0  0  0  0  0  0  0  0  0  0  0
   17.1270   10.4810   22.7970 H   0  0  0  0  0  0  0  0  0  0  0  0
   16.4520   12.1170   22.9870 H   0  0  0  0  0  0  0  0  0  0  0  0
   15.0710   11.7800   25.6990 H   0  0  0  0  0  0  0  0  0  0  0  0
   13.5650   11.0160   25.1360 H   0  0  0  0  0  0  0  0  0  0  0  0
   14.2320   12.4190   24.2650 H   0  0  0  0  0  0  0  0  0  0  0  0
   16.1290    9.5050   25.5890 H   0  0  0  0  0  0  0  0  0  0  0  0
   16.0380    8.5570   24.0850 H   0  0  0  0  0  0  0  0  0  0  0  0
   14.5610    8.8820   25.0240 H   0  0  0  0  0  0  0  0  0  0  0  0
   14.2740   11.1130   22.1120 H   0  0  0  0  0  0  0  0  0  0  0  0
   13.4980    9.8020   23.0330 H   0  0  0  0  0  0  0  0  0  0  0  0
   14.9760    9.4770   22.0950 H   0  0  0  0  0  0  0  0  0  0  0  0
  1  2  2  0  0  0  0
  2  3  1  0  0  0  0
  2  4  1  0  0  0  0
  3 33  1  0  0  0  0
  3 34  1  0  0  0  0
  3 35  1  0  0  0  0
  4  5  1  0  0  0  0
  4 36  1  0  0  0  0
  5  6  1  0  0  0  0
  5 13  1  0  0  0  0
  5 37  1  0  0  0  0
  6  7  1  0  0  0  0
  6 38  1  0  0  0  0
  6 39  1  0  0  0  0
  7  8  1  0  0  0  0
  7 12  2  0  0  0  0
  8  9  2  0  0  0  0
  8 40  1  0  0  0  0
  9 10  1  0  0  0  0
  9 41  1  0  0  0  0
 10 11  2  0  0  0  0
 10 42  1  0  0  0  0
 11 12  1  0  0  0  0
 11 43  1  0  0  0  0
 12 44  1  0  0  0  0
 13 14  1  0  0  0  0
 13 15  1  0  0  0  0
 13 45  1  0  0  0  0
 14 46  1  0  0  0  0
 15 16  1  0  0  0  0
 15 47  1  0  0  0  0
 15 48  1  0  0  0  0
 16 17  1  0  0  0  0
 16 49  1  0  0  0  0
 16 50  1  0  0  0  0
 17 18  1  0  0  0  0
 17 22  1  0  0  0  0
 17 51  1  0  0  0  0
 18 19  1  0  0  0  0
 18 52  1  0  0  0  0
 18 53  1  0  0  0  0
 19 20  1  0  0  0  0
 19 21  1  0  0  0  0
 19 27  1  0  0  0  0
 20 54  1  0  0  0  0
 20 55  1  0  0  0  0
 20 56  1  0  0  0  0
 21 57  1  0  0  0  0
 21 58  1  0  0  0  0
 21 59  1  0  0  0  0
 22 23  1  0  0  0  0
 22 26  2  0  0  0  0
 23 24  2  0  0  0  0
 23 60  1  0  0  0  0
 24 25  1  0  0  0  0
 24 28  1  0  0  0  0
 25 26  1  0  0  0  0
 26 27  1  0  0  0  0
 28 29  1  0  0  0  0
 28 61  1  0  0  0  0
 28 62  1  0  0  0  0
 29 30  1  0  0  0  0
 29 31  1  0  0  0  0
 29 32  1  0  0  0  0
 30 63  1  0  0  0  0
 30 64  1  0  0  0  0
 30 65  1  0  0  0  0
 31 66  1  0  0  0  0
 31 67  1  0  0  0  0
 31 68  1  0  0  0  0
 32 69  1  0  0  0  0
 32 70  1  0  0  0  0
 32 71  1  0  0  0  0
M  CHG  1  16   1
M  END
>  <PARENT_CMPD_ID>
4EXG

>  <STANDARD_TYPE>
IC50

>  <RELATION>
=

>  <STANDARD_VALUE>
0.0085000005

>  <STANDARD_UNITS>
uM

>  <COMPOUND_KEY>
2

>  <PUBMED_ID>
23010268

>  <JOURNAL>
Bioorg.Med.Chem.Lett.

>  <YEAR>
2012

>  <VOLUME>
22

>  <FIRST_PAGE>
6721

>  <Company>
Medivir

>  <Resolution>
1.8

>  <idx>
30

>  <Model>
Train

>  <target>
8.0705814

>  <des_pred_mlr>
6.7624102

>  <RF_Canvas>
7.6416788

>  <DNN_Canvas>
7.4385505

>  <pred_CoMFA>
7.4299998

>  <pred_COMSIA>
6.8801999

>  <pred_abm5>
7.6037464

>  <pred_ff8>
7.6941581

>  <pred_gau6>
7.3394375

>  <CID>
BACE_30

>  <active>
1

>  <des_class_bayes>
0

>  <maacs_class_bayes>
0

>  <radial_class_bayes>
1

>  <dend_class_bayes>
1

>  <molprint_class_bayes>
1

>  <RF_canvas>
1

>  <DNN_canvas>
1

$$$$
1YM2_5175
  MOE2015           3D

109109  0  0  1  0  0  0  0  0999 V2000
   30.0500   15.5150   23.1580 C   0  0  0  0  0  0  0  0  0  0  0  0
   29.0980   16.2790   23.0990 O   0  0  0  0  0  0  0  0  0  0  0  0
   31.4010   16.0300   23.5780 C   0  0  0  0  0  0  0  0  0  0  0  0
   29.9810   14.2000   22.8660 N   0  0  0  0  0  0  0  0  0  0  0  0
   28.7270   13.6070   22.4630 C   0  0  3  0  0  0  0  0  0  0  0  0
   27.7040   13.6820   23.5860 C   0  0  0  0  0  0  0  0  0  0  0  0
   28.0880   13.6480   24.7480 O   0  0  0  0  0  0  0  0  0  0  0  0
   29.0910   12.1580   22.0600 C   0  0  0  0  0  0  0  0  0  0  0  0
   28.0200   11.4990   21.1820 C   0  0  0  0  0  0  0  0  0  0  0  0
   28.0080   12.3000   19.8520 C   0  0  0  0  0  0  0  0  0  0  0  0
   28.6510   10.1300   20.7830 C   0  0  0  0  0  0  0  0  0  0  0  0
   26.4020   13.7940   23.2300 N   0  0  0  0  0  0  0  0  0  0  0  0
   25.3690   13.9100   24.2680 C   0  0  3  0  0  0  0  0  0  0  0  0
   24.1220   13.3070   23.6730 C   0  0  0  0  0  0  0  0  0  0  0  0
   23.2040   14.0190   23.2850 O   0  0  0  0  0  0  0  0  0  0  0  0
   25.1350   15.4110   24.6640 C   0  0  0  0  0  0  0  0  0  0  0  0
   26.2420   15.9430   25.6160 C   0  0  0  0  0  0  0  0  0  0  0  0
   25.7910   17.6310   26.1940 S   0  0  0  0  0  0  0  0  0  0  0  0
   26.3930   18.5260   24.7540 C   0  0  0  0  0  0  0  0  0  0  0  0
   24.1100   11.9590   23.6090 N   0  0  0  0  0  0  0  0  0  0  0  0
   22.9630   11.2770   23.0130 C   0  0  3  0  0  0  0  0  0  0  0  0
   22.0810   10.5680   24.0450 C   0  0  3  0  0  0  0  0  0  0  0  0
   22.8350    9.5480   24.7630 O   0  0  0  0  0  0  0  0  0  0  0  0
   21.4430   11.5640   25.0350 C   0  0  3  0  0  0  0  0  0  0  0  0
   20.2240   10.8440   25.6640 C   0  0  3  0  0  0  0  0  0  0  0  0
   20.1490   11.3530   27.1200 C   0  0  0  0  0  0  0  0  0  0  0  0
   21.4780   12.0420   27.3390 C   0  0  0  0  0  0  0  0  0  0  0  0
   22.4050   11.9920   26.1680 C   0  0  0  0  0  0  0  0  0  0  0  0
   21.7670   12.5980   28.3880 O   0  0  0  0  0  0  0  0  0  0  0  0
   18.9590   11.3280   24.9500 C   0  0  0  0  0  0  0  0  0  0  0  0
   18.9570   12.4430   24.4600 O   0  0  0  0  0  0  0  0  0  0  0  0
   23.4760   10.2570   21.9790 C   0  0  0  0  0  0  0  0  0  0  0  0
   24.1400   11.0160   20.8000 C   0  0  0  0  0  0  0  0  0  0  0  0
   24.7830    9.9970   19.8420 C   0  0  0  0  0  0  0  0  0  0  0  0
   23.0500   11.7930   20.0260 C   0  0  0  0  0  0  0  0  0  0  0  0
   17.9080   10.5120   24.8840 N   0  0  0  0  0  0  0  0  0  0  0  0
   16.7320   10.9790   24.2430 C   0  0  3  0  0  0  0  0  0  0  0  0
   16.1070   12.0950   25.0600 C   0  0  0  0  0  0  0  0  0  0  0  0
   16.2390   12.0830   26.2780 O   0  0  0  0  0  0  0  0  0  0  0  0
   15.7380    9.7850   23.9580 C   0  0  0  0  0  0  0  0  0  0  0  0
   15.2510    9.0500   25.2640 C   0  0  0  0  0  0  0  0  0  0  0  0
   14.5600   10.3950   23.1210 C   0  0  0  0  0  0  0  0  0  0  0  0
   14.8450   14.1500   25.1250 C   0  0  0  0  0  0  0  0  0  0  0  0
   15.4410   13.0520   24.3770 N   0  3  0  0  0  0  0  0  0  0  0  0
   15.7930   15.3780   25.2190 C   0  0  0  0  0  0  0  0  0  0  0  0
   15.4880   16.3530   24.0670 C   0  0  0  0  0  0  0  0  0  0  0  0
   16.4070   17.5840   24.1810 C   0  0  0  0  0  0  0  0  0  0  0  0
   32.1200   15.2110   23.5720 H   0  0  0  0  0  0  0  0  0  0  0  0
   31.3340   16.4470   24.5830 H   0  0  0  0  0  0  0  0  0  0  0  0
   31.7260   16.8050   22.8840 H   0  0  0  0  0  0  0  0  0  0  0  0
   30.8100   13.6270   22.9290 H   0  0  0  0  0  0  0  0  0  0  0  0
   28.2540   14.1300   21.6320 H   0  0  0  0  0  0  0  0  0  0  0  0
   29.2120   11.5640   22.9660 H   0  0  0  0  0  0  0  0  0  0  0  0
   30.0310   12.1750   21.5090 H   0  0  0  0  0  0  0  0  0  0  0  0
   27.0440   11.4390   21.6630 H   0  0  0  0  0  0  0  0  0  0  0  0
   29.0130   12.3180   19.4300 H   0  0  0  0  0  0  0  0  0  0  0  0
   27.6770   13.3200   20.0450 H   0  0  0  0  0  0  0  0  0  0  0  0
   27.3260   11.8240   19.1470 H   0  0  0  0  0  0  0  0  0  0  0  0
   29.6190   10.3000   20.3120 H   0  0  0  0  0  0  0  0  0  0  0  0
   27.9920    9.6160   20.0830 H   0  0  0  0  0  0  0  0  0  0  0  0
   28.7830    9.5170   21.6750 H   0  0  0  0  0  0  0  0  0  0  0  0
   26.1420   13.7980   22.2540 H   0  0  0  0  0  0  0  0  0  0  0  0
   25.6630   13.3960   25.1830 H   0  0  0  0  0  0  0  0  0  0  0  0
   24.1700   15.4960   25.1640 H   0  0  0  0  0  0  0  0  0  0  0  0
   25.1290   16.0170   23.7580 H   0  0  0  0  0  0  0  0  0  0  0  0
   27.1920   15.9830   25.0830 H   0  0  0  0  0  0  0  0  0  0  0  0
   26.3350   15.2770   26.4740 H   0  0  0  0  0  0  0  0  0  0  0  0
   26.2180   19.5930   24.8900 H   0  0  0  0  0  0  0  0  0  0  0  0
   25.8640   18.1820   23.8650 H   0  0  0  0  0  0  0  0  0  0  0  0
   27.4610   18.3450   24.6340 H   0  0  0  0  0  0  0  0  0  0  0  0
   24.9050   11.4250   23.9460 H   0  0  0  0  0  0  0  0  0  0  0  0
   22.3390   12.0350   22.5400 H   0  0  0  0  0  0  0  0  0  0  0  0
   21.2730   10.0820   23.4980 H   0  0  0  0  0  0  0  0  0  0  0  0
   23.5410    9.9910   25.2390 H   0  0  0  0  0  0  0  0  0  0  0  0
   21.1720   12.4710   24.4950 H   0  0  0  0  0  0  0  0  0  0  0  0
   20.3100    9.7600   25.5950 H   0  0  0  0  0  0  0  0  0  0  0  0
   20.0250   10.5220   27.8140 H   0  0  0  0  0  0  0  0  0  0  0  0
   19.3240   12.0550   27.2420 H   0  0  0  0  0  0  0  0  0  0  0  0
   22.8470   12.9680   25.9680 H   0  0  0  0  0  0  0  0  0  0  0  0
   23.1970   11.2580   26.3170 H   0  0  0  0  0  0  0  0  0  0  0  0
   22.6410    9.6640   21.6070 H   0  0  0  0  0  0  0  0  0  0  0  0
   24.2080    9.5990   22.4480 H   0  0  0  0  0  0  0  0  0  0  0  0
   24.8960   11.7010   21.1840 H   0  0  0  0  0  0  0  0  0  0  0  0
   24.0170    9.3180   19.4660 H   0  0  0  0  0  0  0  0  0  0  0  0
   25.5440    9.4270   20.3750 H   0  0  0  0  0  0  0  0  0  0  0  0
   25.2430   10.5240   19.0060 H   0  0  0  0  0  0  0  0  0  0  0  0
   22.3030   11.0940   19.6500 H   0  0  0  0  0  0  0  0  0  0  0  0
   23.5060   12.3220   19.1890 H   0  0  0  0  0  0  0  0  0  0  0  0
   22.5720   12.5110   20.6930 H   0  0  0  0  0  0  0  0  0  0  0  0
   17.9480    9.5840   25.2810 H   0  0  0  0  0  0  0  0  0  0  0  0
   16.9870   11.3990   23.2700 H   0  0  0  0  0  0  0  0  0  0  0  0
   16.2410    8.9930   23.4030 H   0  0  0  0  0  0  0  0  0  0  0  0
   14.7260    9.7580   25.9050 H   0  0  0  0  0  0  0  0  0  0  0  0
   16.1120    8.6470   25.7970 H   0  0  0  0  0  0  0  0  0  0  0  0
   14.5780    8.2360   24.9940 H   0  0  0  0  0  0  0  0  0  0  0  0
   14.0750   11.1830   23.6970 H   0  0  0  0  0  0  0  0  0  0  0  0
   13.8350    9.6140   22.8910 H   0  0  0  0  0  0  0  0  0  0  0  0
   14.9510   10.8120   22.1930 H   0  0  0  0  0  0  0  0  0  0  0  0
   14.6160   13.8050   26.1330 H   0  0  0  0  0  0  0  0  0  0  0  0
   13.9240   14.4550   24.6280 H   0  0  0  0  0  0  0  0  0  0  0  0
   14.6950   12.5940   23.8730 H   0  0  0  0  0  0  0  0  0  0  0  0
   16.0920   13.4570   23.7200 H   0  0  0  0  0  0  0  0  0  0  0  0
   16.8280   15.0440   25.1480 H   0  0  0  0  0  0  0  0  0  0  0  0
   15.6390   15.8830   26.1730 H   0  0  0  0  0  0  0  0  0  0  0  0
   14.4470   16.6700   24.1250 H   0  0  0  0  0  0  0  0  0  0  0  0
   15.6640   15.8550   23.1130 H   0  0  0  0  0  0  0  0  0  0  0  0
   16.2310   18.0820   25.1350 H   0  0  0  0  0  0  0  0  0  0  0  0
   16.1920   18.2750   23.3660 H   0  0  0  0  0  0  0  0  0  0  0  0
   17.4480   17.2670   24.1230 H   0  0  0  0  0  0  0  0  0  0  0  0
  1  2  2  0  0  0  0
  1  3  1  0  0  0  0
  1  4  1  0  0  0  0
  3 48  1  0  0  0  0
  3 49  1  0  0  0  0
  3 50  1  0  0  0  0
  4  5  1  0  0  0  0
  4 51  1  0  0  0  0
  5  6  1  0  0  0  0
  5  8  1  0  0  0  0
  5 52  1  0  0  0  0
  6  7  2  0  0  0  0
  6 12  1  0  0  0  0
  8  9  1  0  0  0  0
  8 53  1  0  0  0  0
  8 54  1  0  0  0  0
  9 10  1  0  0  0  0
  9 11  1  0  0  0  0
  9 55  1  0  0  0  0
 10 56  1  0  0  0  0
 10 57  1  0  0  0  0
 10 58  1  0  0  0  0
 11 59  1  0  0  0  0
 11 60  1  0  0  0  0
 11 61  1  0  0  0  0
 12 13  1  0  0  0  0
 12 62  1  0  0  0  0
 13 14  1  0  0  0  0
 13 16  1  0  0  0  0
 13 63  1  0  0  0  0
 14 15  2  0  0  0  0
 14 20  1  0  0  0  0
 16 17  1  0  0  0  0
 16 64  1  0  0  0  0
 16 65  1  0  0  0  0
 17 18  1  0  0  0  0
 17 66  1  0  0  0  0
 17 67  1  0  0  0  0
 18 19  1  0  0  0  0
 19 68  1  0  0  0  0
 19 69  1  0  0  0  0
 19 70  1  0  0  0  0
 20 21  1  0  0  0  0
 20 71  1  0  0  0  0
 21 22  1  0  0  0  0
 21 32  1  0  0  0  0
 21 72  1  0  0  0  0
 22 23  1  0  0  0  0
 22 24  1  0  0  0  0
 22 73  1  0  0  0  0
 23 74  1  0  0  0  0
 24 25  1  0  0  0  0
 24 28  1  0  0  0  0
 24 75  1  0  0  0  0
 25 26  1  0  0  0  0
 25 30  1  0  0  0  0
 25 76  1  0  0  0  0
 26 27  1  0  0  0  0
 26 77  1  0  0  0  0
 26 78  1  0  0  0  0
 27 28  1  0  0  0  0
 27 29  2  0  0  0  0
 28 79  1  0  0  0  0
 28 80  1  0  0  0  0
 30 31  2  0  0  0  0
 30 36  1  0  0  0  0
 32 33  1  0  0  0  0
 32 81  1  0  0  0  0
 32 82  1  0  0  0  0
 33 34  1  0  0  0  0
 33 35  1  0  0  0  0
 33 83  1  0  0  0  0
 34 84  1  0  0  0  0
 34 85  1  0  0  0  0
 34 86  1  0  0  0  0
 35 87  1  0  0  0  0
 35 88  1  0  0  0  0
 35 89  1  0  0  0  0
 36 37  1  0  0  0  0
 36 90  1  0  0  0  0
 37 38  1  0  0  0  0
 37 40  1  0  0  0  0
 37 91  1  0  0  0  0
 38 39  2  0  0  0  0
 38 44  1  0  0  0  0
 40 41  1  0  0  0  0
 40 42  1  0  0  0  0
 40 92  1  0  0  0  0
 41 93  1  0  0  0  0
 41 94  1  0  0  0  0
 41 95  1  0  0  0  0
 42 96  1  0  0  0  0
 42 97  1  0  0  0  0
 42 98  1  0  0  0  0
 43 44  1  0  0  0  0
 43 45  1  0  0  0  0
 43 99  1  0  0  0  0
 43100  1  0  0  0  0
 44101  1  0  0  0  0
 44102  1  0  0  0  0
 45 46  1  0  0  0  0
 45103  1  0  0  0  0
 45104  1  0  0  0  0
 46 47  1  0  0  0  0
 46105  1  0  0  0  0
 46106  1  0  0  0  0
 47107  1  0  0  0  0
 47108  1  0  0  0  0
 47109  1  0  0  0  0
M  CHG  1  44   1
M  END
>  <PARENT_CMPD_ID>
1YM2

>  <STANDARD_TYPE>
IC50

>  <RELATION>
=

>  <STANDARD_VALUE>
0.0099999998

>  <STANDARD_UNITS>
uM

>  <COMPOUND_KEY>
45

>  <PUBMED_ID>
16078837

>  <JOURNAL>
J.Med.Chem.

>  <YEAR>
2005

>  <VOLUME>
48

>  <FIRST_PAGE>
5175

>  <Company>
U.Montreal

>  <Resolution>
2.05

>  <idx>
31

>  <Model>
Train

>  <target>
8

>  <des_pred_mlr>
7.1676998

>  <RF_Canvas>
7.6916223

>  <DNN_Canvas>
7.5912561

>  <pred_CoMFA>
8.2521

>  <pred_COMSIA>
7.9570999

>  <pred_abm5>
7.7794013

>  <pred_ff8>
6.9763641

>  <pred_gau6>
8.0770941

>  <CID>
BACE_31

>  <active>
1

>  <des_class_bayes>
1

>  <maacs_class_bayes>
0

>  <radial_class_bayes>
1

>  <dend_class_bayes>
1

>  <molprint_class_bayes>
1

>  <RF_canvas>
1

>  <DNN_canvas>
1

$$$$
2OAH_1788
  MOE2015           3D

 72 74  0  0  1  0  0  0  0  0999 V2000
   27.5860   13.6940   23.2900 C   0  0  0  0  0  0  0  0  0  0  0  0
   26.2960   13.1660   22.9660 C   0  0  0  0  0  0  0  0  0  0  0  0
   25.1810   13.6530   23.7220 C   0  0  0  0  0  0  0  0  0  0  0  0
   25.3240   14.6360   24.7350 C   0  0  0  0  0  0  0  0  0  0  0  0
   26.6350   15.1400   25.0340 C   0  0  0  0  0  0  0  0  0  0  0  0
   27.6850   14.6290   24.3040 N   0  0  0  0  0  0  0  0  0  0  0  0
   26.8440   16.0760   26.0450 N   0  0  0  0  0  0  0  0  0  0  0  0
   28.3160   16.3070   26.7340 S   0  0  0  0  0  0  0  0  0  0  0  0
   28.0780   17.1950   27.8370 O   0  0  0  0  0  0  0  0  0  0  0  0
   25.8100   17.0860   26.3590 C   0  0  0  0  0  0  0  0  0  0  0  0
   23.8280   13.1490   23.4710 C   0  0  0  0  0  0  0  0  0  0  0  0
   23.7290   11.8050   23.4520 N   0  0  0  0  0  0  0  0  0  0  0  0
   22.5960   11.0550   22.9020 C   0  0  3  0  0  0  0  0  0  0  0  0
   21.9620   10.2320   24.0510 C   0  0  3  0  0  0  0  0  0  0  0  0
   23.1130   10.1260   21.7930 C   0  0  0  0  0  0  0  0  0  0  0  0
   22.8670   13.8730   23.2980 O   0  0  0  0  0  0  0  0  0  0  0  0
   29.3850   17.1540   25.5630 C   0  0  0  0  0  0  0  0  0  0  0  0
   28.8820   15.0340   26.9900 O   0  0  0  0  0  0  0  0  0  0  0  0
   23.4570   11.9700   19.8840 C   0  0  0  0  0  0  0  0  0  0  0  0
   23.9260   10.8520   20.7070 C   0  0  0  0  0  0  0  0  0  0  0  0
   25.3180   10.5680   20.3920 C   0  0  0  0  0  0  0  0  0  0  0  0
   25.8550   11.6500   19.1580 S   0  0  0  0  0  0  0  0  0  0  0  0
   24.3900   12.5040   19.0130 C   0  0  0  0  0  0  0  0  0  0  0  0
   21.3720   11.1500   25.1280 C   0  0  0  0  0  0  0  0  0  0  0  0
   23.0350    9.4720   24.6990 N   0  3  0  0  0  0  0  0  0  0  0  0
   20.1510   11.9340   24.6810 C   0  0  0  0  0  0  0  0  0  0  0  0
   19.5420   12.6420   25.8950 C   0  0  0  0  0  0  0  0  0  0  0  0
   18.1650   13.1700   25.5360 C   0  0  0  0  0  0  0  0  0  0  0  0
   28.7740   13.3530   22.5710 N   0  0  0  0  0  0  0  0  0  0  0  0
   28.7950   12.3510   21.4680 C   0  0  0  0  0  0  0  0  0  0  0  0
   28.9520    9.8240   21.1420 C   0  0  0  0  0  0  0  0  0  0  0  0
   29.8650   10.1530   22.3160 C   0  0  3  0  0  0  0  0  0  0  0  0
   28.6430   10.9820   22.0440 C   0  0  3  0  0  0  0  0  0  0  0  0
   29.8570    9.1700   23.4360 C   0  0  0  0  0  0  0  0  0  0  0  0
   26.1680   12.4310   22.1850 H   0  0  0  0  0  0  0  0  0  0  0  0
   24.4610   14.9990   25.2730 H   0  0  0  0  0  0  0  0  0  0  0  0
   24.8830   16.8270   25.8480 H   0  0  0  0  0  0  0  0  0  0  0  0
   26.1470   18.0670   26.0250 H   0  0  0  0  0  0  0  0  0  0  0  0
   25.6380   17.1080   27.4350 H   0  0  0  0  0  0  0  0  0  0  0  0
   24.4930   11.2750   23.8460 H   0  0  0  0  0  0  0  0  0  0  0  0
   21.8460   11.7240   22.4790 H   0  0  0  0  0  0  0  0  0  0  0  0
   21.1790    9.5990   23.6340 H   0  0  0  0  0  0  0  0  0  0  0  0
   22.2570    9.6460   21.3190 H   0  0  0  0  0  0  0  0  0  0  0  0
   23.7480    9.3670   22.2490 H   0  0  0  0  0  0  0  0  0  0  0  0
   28.9750   18.1400   25.3450 H   0  0  0  0  0  0  0  0  0  0  0  0
   29.4470   16.5740   24.6420 H   0  0  0  0  0  0  0  0  0  0  0  0
   30.3810   17.2610   25.9920 H   0  0  0  0  0  0  0  0  0  0  0  0
   22.4490   12.3520   19.9530 H   0  0  0  0  0  0  0  0  0  0  0  0
   25.9200    9.8010   20.8570 H   0  0  0  0  0  0  0  0  0  0  0  0
   24.2160   13.3340   18.3450 H   0  0  0  0  0  0  0  0  0  0  0  0
   22.1420   11.8600   25.4300 H   0  0  0  0  0  0  0  0  0  0  0  0
   21.0890   10.5350   25.9830 H   0  0  0  0  0  0  0  0  0  0  0  0
   23.7270   10.1110   25.0640 H   0  0  0  0  0  0  0  0  0  0  0  0
   23.4670    8.8570   24.0240 H   0  0  0  0  0  0  0  0  0  0  0  0
   22.6500    8.9250   25.4560 H   0  0  0  0  0  0  0  0  0  0  0  0
   19.4180   11.2530   24.2490 H   0  0  0  0  0  0  0  0  0  0  0  0
   20.4440   12.6730   23.9360 H   0  0  0  0  0  0  0  0  0  0  0  0
   20.1830   13.4720   26.1910 H   0  0  0  0  0  0  0  0  0  0  0  0
   19.4560   11.9370   26.7220 H   0  0  0  0  0  0  0  0  0  0  0  0
   18.2510   13.8750   24.7090 H   0  0  0  0  0  0  0  0  0  0  0  0
   17.7320   13.6740   26.4000 H   0  0  0  0  0  0  0  0  0  0  0  0
   17.5230   12.3400   25.2400 H   0  0  0  0  0  0  0  0  0  0  0  0
   29.6380   13.8120   22.8220 H   0  0  0  0  0  0  0  0  0  0  0  0
   29.7420   12.4180   20.9330 H   0  0  0  0  0  0  0  0  0  0  0  0
   27.9740   12.5500   20.7790 H   0  0  0  0  0  0  0  0  0  0  0  0
   28.3290    8.9300   21.1680 H   0  0  0  0  0  0  0  0  0  0  0  0
   29.2900   10.0020   20.1210 H   0  0  0  0  0  0  0  0  0  0  0  0
   30.9180   10.3930   22.4650 H   0  0  0  0  0  0  0  0  0  0  0  0
   27.7940   11.2900   22.6540 H   0  0  0  0  0  0  0  0  0  0  0  0
   28.8620    8.7360   23.5320 H   0  0  0  0  0  0  0  0  0  0  0  0
   30.1240    9.6750   24.3640 H   0  0  0  0  0  0  0  0  0  0  0  0
   30.5790    8.3800   23.2310 H   0  0  0  0  0  0  0  0  0  0  0  0
  1  2  1  0  0  0  0
  1  6  2  0  0  0  0
  1 29  1  0  0  0  0
  2  3  2  0  0  0  0
  2 35  1  0  0  0  0
  3  4  1  0  0  0  0
  3 11  1  0  0  0  0
  4  5  2  0  0  0  0
  4 36  1  0  0  0  0
  5  6  1  0  0  0  0
  5  7  1  0  0  0  0
  7  8  1  0  0  0  0
  7 10  1  0  0  0  0
  8  9  2  0  0  0  0
  8 17  1  0  0  0  0
  8 18  2  0  0  0  0
 10 37  1  0  0  0  0
 10 38  1  0  0  0  0
 10 39  1  0  0  0  0
 11 12  1  0  0  0  0
 11 16  2  0  0  0  0
 12 13  1  0  0  0  0
 12 40  1  0  0  0  0
 13 14  1  0  0  0  0
 13 15  1  0  0  0  0
 13 41  1  0  0  0  0
 14 24  1  0  0  0  0
 14 25  1  0  0  0  0
 14 42  1  0  0  0  0
 15 20  1  0  0  0  0
 15 43  1  0  0  0  0
 15 44  1  0  0  0  0
 17 45  1  0  0  0  0
 17 46  1  0  0  0  0
 17 47  1  0  0  0  0
 19 20  1  0  0  0  0
 19 23  2  0  0  0  0
 19 48  1  0  0  0  0
 20 21  2  0  0  0  0
 21 22  1  0  0  0  0
 21 49  1  0  0  0  0
 22 23  1  0  0  0  0
 23 50  1  0  0  0  0
 24 26  1  0  0  0  0
 24 51  1  0  0  0  0
 24 52  1  0  0  0  0
 25 53  1  0  0  0  0
 25 54  1  0  0  0  0
 25 55  1  0  0  0  0
 26 27  1  0  0  0  0
 26 56  1  0  0  0  0
 26 57  1  0  0  0  0
 27 28  1  0  0  0  0
 27 58  1  0  0  0  0
 27 59  1  0  0  0  0
 28 60  1  0  0  0  0
 28 61  1  0  0  0  0
 28 62  1  0  0  0  0
 29 30  1  0  0  0  0
 29 63  1  0  0  0  0
 30 33  1  0  0  0  0
 30 64  1  0  0  0  0
 30 65  1  0  0  0  0
 31 32  1  0  0  0  0
 31 33  1  0  0  0  0
 31 66  1  0  0  0  0
 31 67  1  0  0  0  0
 32 33  1  0  0  0  0
 32 34  1  0  0  0  0
 32 68  1  0  0  0  0
 33 69  1  0  0  0  0
 34 70  1  0  0  0  0
 34 71  1  0  0  0  0
 34 72  1  0  0  0  0
M  CHG  1  25   1
M  END
>  <PARENT_CMPD_ID>
2OAH

>  <STANDARD_TYPE>
IC50

>  <RELATION>
=

>  <STANDARD_VALUE>
0.011

>  <STANDARD_UNITS>
uM

>  <COMPOUND_KEY>
19

>  <PUBMED_ID>
17257835

>  <JOURNAL>
Bioorg.Med.Chem.Lett.

>  <YEAR>
2007

>  <VOLUME>
17

>  <FIRST_PAGE>
1788

>  <Company>
Merck

>  <Resolution>
1.8

>  <idx>
32

>  <Model>
Train

>  <target>
7.9586072

>  <des_pred_mlr>
6.9990902

>  <RF_Canvas>
7.4460077

>  <DNN_Canvas>
7.5420327

>  <pred_CoMFA>
7.2792001

>  <pred_COMSIA>
6.6444001

>  <pred_abm5>
7.4726152

>  <pred_ff8>
7.3136544

>  <pred_gau6>
7.4804525

>  <CID>
BACE_32

>  <active>
1

>  <des_class_bayes>
1

>  <maacs_class_bayes>
1

>  <radial_class_bayes>
1

>  <dend_class_bayes>
1

>  <molprint_class_bayes>
1

>  <RF_canvas>
1

>  <DNN_canvas>
1

$$$$
2P83_3378
  MOE2015           3D

 85 87  0  0  1  0  0  0  0  0999 V2000
   23.7650   11.7090   23.3620 N   0  0  0  0  0  0  0  0  0  0  0  0
   24.8530   13.8530   23.8400 C   0  0  0  0  0  0  0  0  0  0  0  0
   26.1180   13.3570   23.3640 C   0  0  0  0  0  0  0  0  0  0  0  0
   28.6770   13.5800   23.0880 C   0  0  0  0  0  0  0  0  0  0  0  0
   25.8680   17.0940   25.4970 C   0  0  0  0  0  0  0  0  0  0  0  0
   23.6210   13.0800   23.5920 C   0  0  0  0  0  0  0  0  0  0  0  0
   28.3160   13.3520   20.4490 C   0  0  0  0  0  0  0  0  0  0  0  0
   28.1290   14.8410   20.0720 C   0  0  0  0  0  0  0  0  0  0  0  0
   22.6440   10.7410   23.0490 C   0  0  3  0  0  0  0  0  0  0  0  0
   23.2140    9.8230   21.9310 C   0  0  0  0  0  0  0  0  0  0  0  0
   18.9930   11.6740   26.5860 C   0  0  0  0  0  0  0  0  0  0  0  0
   18.8150   13.1040   26.5690 C   0  0  0  0  0  0  0  0  0  0  0  0
   17.7330   13.6930   25.8040 C   0  0  0  0  0  0  0  0  0  0  0  0
   16.9820   11.3960   25.0500 C   0  0  0  0  0  0  0  0  0  0  0  0
   23.5680   12.5130   19.0960 C   0  0  0  0  0  0  0  0  0  0  0  0
   23.8220   10.6570   20.7600 C   0  0  0  0  0  0  0  0  0  0  0  0
   27.3530   14.1080   23.5880 C   0  0  0  0  0  0  0  0  0  0  0  0
   27.2930   15.3510   24.2930 C   0  0  0  0  0  0  0  0  0  0  0  0
   26.0020   15.8240   24.7610 C   0  0  0  0  0  0  0  0  0  0  0  0
   24.7980   15.0750   24.5320 C   0  0  0  0  0  0  0  0  0  0  0  0
   29.6550   13.7210   23.8620 O   0  0  0  0  0  0  0  0  0  0  0  0
   28.9140   12.9500   21.8080 N   0  0  0  0  0  0  0  0  0  0  0  0
   29.8870   11.7880   21.8470 C   0  0  0  0  0  0  0  0  0  0  0  0
   29.4730   10.5910   20.9300 C   0  0  0  0  0  0  0  0  0  0  0  0
   28.6370    9.5350   21.7140 C   0  0  0  0  0  0  0  0  0  0  0  0
   29.4320   15.6100   20.3310 C   0  0  0  0  0  0  0  0  0  0  0  0
   22.5060   13.6140   23.5660 O   0  0  0  0  0  0  0  0  0  0  0  0
   22.0500    9.9530   24.2120 C   0  0  3  0  0  0  0  0  0  0  0  0
   21.4520   10.8780   25.2540 C   0  0  0  0  0  0  0  0  0  0  0  0
   20.8270   10.1010   26.3790 N   0  3  0  0  0  0  0  0  0  0  0  0
   20.1600   11.0080   27.3730 C   0  0  0  0  0  0  0  0  0  0  0  0
   16.8350   12.8360   25.0570 C   0  0  0  0  0  0  0  0  0  0  0  0
   18.0550   10.8420   25.8140 C   0  0  0  0  0  0  0  0  0  0  0  0
   16.0440   10.7120   24.2810 O   0  0  0  0  0  0  0  0  0  0  0  0
   23.0530   11.7130   20.1660 C   0  0  0  0  0  0  0  0  0  0  0  0
   25.1700   10.3990   20.2540 C   0  0  0  0  0  0  0  0  0  0  0  0
   25.6990   11.2060   19.1700 C   0  0  0  0  0  0  0  0  0  0  0  0
   24.8860   12.2650   18.6000 C   0  0  0  0  0  0  0  0  0  0  0  0
   21.0100    9.1080   23.6760 O   0  0  0  0  0  0  0  0  0  0  0  0
   16.0320    9.2860   24.1490 C   0  0  0  0  0  0  0  0  0  0  0  0
   26.7820   18.1210   25.2480 N   0  0  0  0  0  0  0  0  0  0  0  0
   24.9220   17.2340   26.3420 O   0  0  0  0  0  0  0  0  0  0  0  0
   26.9070   10.9820   18.7100 F   0  0  0  0  0  0  0  0  0  0  0  0
   22.8380   13.4800   18.5680 F   0  0  0  0  0  0  0  0  0  0  0  0
   24.7000   11.3300   23.4090 H   0  0  0  0  0  0  0  0  0  0  0  0
   26.1560   12.4170   22.8340 H   0  0  0  0  0  0  0  0  0  0  0  0
   28.9610   12.9170   19.6850 H   0  0  0  0  0  0  0  0  0  0  0  0
   27.3290   12.8920   20.3960 H   0  0  0  0  0  0  0  0  0  0  0  0
   27.3290   15.2700   20.6760 H   0  0  0  0  0  0  0  0  0  0  0  0
   27.8670   14.9170   19.0170 H   0  0  0  0  0  0  0  0  0  0  0  0
   21.7670   11.3120   22.7430 H   0  0  0  0  0  0  0  0  0  0  0  0
   22.4100    9.1990   21.5410 H   0  0  0  0  0  0  0  0  0  0  0  0
   23.9920    9.1890   22.3560 H   0  0  0  0  0  0  0  0  0  0  0  0
   19.4880   13.7380   27.1270 H   0  0  0  0  0  0  0  0  0  0  0  0
   17.5970   14.7640   25.7910 H   0  0  0  0  0  0  0  0  0  0  0  0
   28.1890   15.9260   24.4740 H   0  0  0  0  0  0  0  0  0  0  0  0
   23.8510   15.4510   24.8910 H   0  0  0  0  0  0  0  0  0  0  0  0
   29.9530   11.4280   22.8740 H   0  0  0  0  0  0  0  0  0  0  0  0
   30.8650   12.1470   21.5250 H   0  0  0  0  0  0  0  0  0  0  0  0
   30.3730   10.1140   20.5420 H   0  0  0  0  0  0  0  0  0  0  0  0
   28.8770   10.9700   20.1000 H   0  0  0  0  0  0  0  0  0  0  0  0
   29.2260    9.1500   22.5460 H   0  0  0  0  0  0  0  0  0  0  0  0
   28.3710    8.7150   21.0470 H   0  0  0  0  0  0  0  0  0  0  0  0
   27.7290   10.0010   22.0960 H   0  0  0  0  0  0  0  0  0  0  0  0
   29.6950   15.5350   21.3860 H   0  0  0  0  0  0  0  0  0  0  0  0
   29.2940   16.6580   20.0650 H   0  0  0  0  0  0  0  0  0  0  0  0
   30.2320   15.1830   19.7260 H   0  0  0  0  0  0  0  0  0  0  0  0
   22.8340    9.3690   24.6940 H   0  0  0  0  0  0  0  0  0  0  0  0
   20.6890   11.4970   24.7830 H   0  0  0  0  0  0  0  0  0  0  0  0
   22.2390   11.5150   25.6570 H   0  0  0  0  0  0  0  0  0  0  0  0
   21.5460    9.5700   26.8500 H   0  0  0  0  0  0  0  0  0  0  0  0
   20.1380    9.4690   25.9980 H   0  0  0  0  0  0  0  0  0  0  0  0
   19.7760   10.4360   28.2170 H   0  0  0  0  0  0  0  0  0  0  0  0
   20.8590   11.7620   27.7340 H   0  0  0  0  0  0  0  0  0  0  0  0
   16.0330   13.2840   24.4890 H   0  0  0  0  0  0  0  0  0  0  0  0
   18.1830    9.7700   25.8260 H   0  0  0  0  0  0  0  0  0  0  0  0
   22.0580   11.9100   20.5360 H   0  0  0  0  0  0  0  0  0  0  0  0
   25.7690    9.6110   20.6850 H   0  0  0  0  0  0  0  0  0  0  0  0
   25.2790   12.8700   17.7960 H   0  0  0  0  0  0  0  0  0  0  0  0
   20.3550    9.6780   23.2670 H   0  0  0  0  0  0  0  0  0  0  0  0
   15.2090    8.9880   23.5000 H   0  0  0  0  0  0  0  0  0  0  0  0
   15.9030    8.8310   25.1310 H   0  0  0  0  0  0  0  0  0  0  0  0
   16.9750    8.9530   23.7150 H   0  0  0  0  0  0  0  0  0  0  0  0
   26.7020   18.9990   25.7420 H   0  0  0  0  0  0  0  0  0  0  0  0
   27.5220   17.9860   24.5740 H   0  0  0  0  0  0  0  0  0  0  0  0
  1  6  1  0  0  0  0
  1  9  1  0  0  0  0
  1 45  1  0  0  0  0
  2  3  1  0  0  0  0
  2  6  1  0  0  0  0
  2 20  2  0  0  0  0
  3 17  2  0  0  0  0
  3 46  1  0  0  0  0
  4 17  1  0  0  0  0
  4 21  2  0  0  0  0
  4 22  1  0  0  0  0
  5 19  1  0  0  0  0
  5 41  1  0  0  0  0
  5 42  2  0  0  0  0
  6 27  2  0  0  0  0
  7  8  1  0  0  0  0
  7 22  1  0  0  0  0
  7 47  1  0  0  0  0
  7 48  1  0  0  0  0
  8 26  1  0  0  0  0
  8 49  1  0  0  0  0
  8 50  1  0  0  0  0
  9 10  1  0  0  0  0
  9 28  1  0  0  0  0
  9 51  1  0  0  0  0
 10 16  1  0  0  0  0
 10 52  1  0  0  0  0
 10 53  1  0  0  0  0
 11 12  1  0  0  0  0
 11 31  1  0  0  0  0
 11 33  2  0  0  0  0
 12 13  2  0  0  0  0
 12 54  1  0  0  0  0
 13 32  1  0  0  0  0
 13 55  1  0  0  0  0
 14 32  2  0  0  0  0
 14 33  1  0  0  0  0
 14 34  1  0  0  0  0
 15 35  2  0  0  0  0
 15 38  1  0  0  0  0
 15 44  1  0  0  0  0
 16 35  1  0  0  0  0
 16 36  2  0  0  0  0
 17 18  1  0  0  0  0
 18 19  2  0  0  0  0
 18 56  1  0  0  0  0
 19 20  1  0  0  0  0
 20 57  1  0  0  0  0
 22 23  1  0  0  0  0
 23 24  1  0  0  0  0
 23 58  1  0  0  0  0
 23 59  1  0  0  0  0
 24 25  1  0  0  0  0
 24 60  1  0  0  0  0
 24 61  1  0  0  0  0
 25 62  1  0  0  0  0
 25 63  1  0  0  0  0
 25 64  1  0  0  0  0
 26 65  1  0  0  0  0
 26 66  1  0  0  0  0
 26 67  1  0  0  0  0
 28 29  1  0  0  0  0
 28 39  1  0  0  0  0
 28 68  1  0  0  0  0
 29 30  1  0  0  0  0
 29 69  1  0  0  0  0
 29 70  1  0  0  0  0
 30 31  1  0  0  0  0
 30 71  1  0  0  0  0
 30 72  1  0  0  0  0
 31 73  1  0  0  0  0
 31 74  1  0  0  0  0
 32 75  1  0  0  0  0
 33 76  1  0  0  0  0
 34 40  1  0  0  0  0
 35 77  1  0  0  0  0
 36 37  1  0  0  0  0
 36 78  1  0  0  0  0
 37 38  2  0  0  0  0
 37 43  1  0  0  0  0
 38 79  1  0  0  0  0
 39 80  1  0  0  0  0
 40 81  1  0  0  0  0
 40 82  1  0  0  0  0
 40 83  1  0  0  0  0
 41 84  1  0  0  0  0
 41 85  1  0  0  0  0
M  CHG  1  30   1
M  END
>  <PARENT_CMPD_ID>
2P83

>  <STANDARD_TYPE>
IC50

>  <RELATION>
=

>  <STANDARD_VALUE>
0.011

>  <STANDARD_UNITS>
uM

>  <COMPOUND_KEY>
19d

>  <PUBMED_ID>
17434734

>  <JOURNAL>
Bioorg.Med.Chem.Lett.

>  <YEAR>
2007

>  <VOLUME>
17

>  <FIRST_PAGE>
3378

>  <Company>
Pfizer

>  <Resolution>
2.5

>  <idx>
33

>  <Model>
Train

>  <target>
7.9586072

>  <des_pred_mlr>
7.4024501

>  <RF_Canvas>
7.7948065

>  <DNN_Canvas>
7.560339

>  <pred_CoMFA>
7.8383002

>  <pred_COMSIA>
8.1941004

>  <pred_abm5>
8.0623922

>  <pred_ff8>
7.9385462

>  <pred_gau6>
7.8701978

>  <CID>
BACE_33

>  <active>
1

>  <des_class_bayes>
1

>  <maacs_class_bayes>
1

>  <radial_class_bayes>
1

>  <dend_class_bayes>
1

>  <molprint_class_bayes>
1

>  <RF_canvas>
1

>  <DNN_canvas>
1

$$$$
3RVI_5836
  MOE2015           3D

 70 73  0  0  1  0  0  0  0  0999 V2000
   20.6840   12.9840   18.6770 C   0  0  0  0  0  0  0  0  0  0  0  0
   21.5510   13.9710   18.1770 C   0  0  0  0  0  0  0  0  0  0  0  0
   21.1300   14.7940   17.1310 C   0  0  0  0  0  0  0  0  0  0  0  0
   21.7910   15.5560   16.7450 H   0  0  0  0  0  0  0  0  0  0  0  0
   21.0450   12.1310   19.7240 C   0  0  0  0  0  0  0  0  0  0  0  0
   21.2420   10.7720   19.4700 C   0  0  0  0  0  0  0  0  0  0  0  0
   21.1250   10.3900   18.4660 H   0  0  0  0  0  0  0  0  0  0  0  0
   21.1810   12.6190   21.0270 C   0  0  0  0  0  0  0  0  0  0  0  0
   21.0110   13.6660   21.2330 H   0  0  0  0  0  0  0  0  0  0  0  0
   22.0390   11.3280   24.3910 C   0  0  0  0  0  0  0  0  0  0  0  0
   22.9680   14.1880   18.7410 C   0  0  0  0  0  0  0  0  0  0  0  0
   23.1510   13.4760   19.5460 H   0  0  0  0  0  0  0  0  0  0  0  0
   23.0540   15.2040   19.1270 H   0  0  0  0  0  0  0  0  0  0  0  0
   23.7010   14.0370   17.9490 H   0  0  0  0  0  0  0  0  0  0  0  0
   21.0080   11.4300   26.6850 C   0  0  3  0  0  0  0  0  0  0  0  0
   21.0070   10.3410   26.6490 H   0  0  0  0  0  0  0  0  0  0  0  0
   19.6570   11.9440   26.1690 C   0  0  0  0  0  0  0  0  0  0  0  0
   17.0580   11.1470   23.9620 C   0  0  0  0  0  0  0  0  0  0  0  0
   16.0110   11.4300   23.8540 H   0  0  0  0  0  0  0  0  0  0  0  0
   16.7470    9.5670   22.0290 C   0  0  0  0  0  0  0  0  0  0  0  0
   15.6760    9.7680   21.9920 H   0  0  0  0  0  0  0  0  0  0  0  0
   16.9380    8.5500   21.6870 H   0  0  0  0  0  0  0  0  0  0  0  0
   17.4250   11.9910   21.6230 C   0  0  0  0  0  0  0  0  0  0  0  0
   16.3990   12.3560   21.5740 H   0  0  0  0  0  0  0  0  0  0  0  0
   18.0640   12.6190   21.0020 H   0  0  0  0  0  0  0  0  0  0  0  0
   17.2290    9.7010   23.4910 C   0  0  0  0  0  0  0  0  0  0  0  0
   16.6410    9.0410   24.1280 H   0  0  0  0  0  0  0  0  0  0  0  0
   18.2810    9.4220   23.5520 H   0  0  0  0  0  0  0  0  0  0  0  0
   17.4700   10.5510   21.0900 C   0  0  0  0  0  0  0  0  0  0  0  0
   16.9890   10.5220   20.1120 H   0  0  0  0  0  0  0  0  0  0  0  0
   18.5110   10.2440   20.9920 H   0  0  0  0  0  0  0  0  0  0  0  0
   17.9140   12.0650   23.0810 C   0  0  0  0  0  0  0  0  0  0  0  0
   18.9550   11.7460   23.1300 H   0  0  0  0  0  0  0  0  0  0  0  0
   17.8310   13.0910   23.4390 H   0  0  0  0  0  0  0  0  0  0  0  0
   17.3750   11.3150   25.4590 C   0  0  0  0  0  0  0  0  0  0  0  0
   16.7010   10.6640   26.0150 H   0  0  0  0  0  0  0  0  0  0  0  0
   17.1780   12.3540   25.7240 H   0  0  0  0  0  0  0  0  0  0  0  0
   18.7600   10.9970   25.8830 N   0  0  0  0  0  0  0  0  0  0  0  0
   19.0350   10.0280   25.9580 H   0  0  0  0  0  0  0  0  0  0  0  0
   19.4450   13.1560   26.0680 O   0  0  0  0  0  0  0  0  0  0  0  0
   21.1960   11.9200   28.1360 C   0  0  0  0  0  0  0  0  0  0  0  0
   21.2160   13.0100   28.1450 H   0  0  0  0  0  0  0  0  0  0  0  0
   22.1400   11.5360   28.5230 H   0  0  0  0  0  0  0  0  0  0  0  0
   20.0460   11.4290   29.0360 C   0  0  0  0  0  0  0  0  0  0  0  0
   20.1660   10.3580   29.2000 H   0  0  0  0  0  0  0  0  0  0  0  0
   19.1020   11.6150   28.5250 H   0  0  0  0  0  0  0  0  0  0  0  0
   20.0090   12.1300   30.3990 C   0  0  0  0  0  0  0  0  0  0  0  0
   20.9480   11.9540   30.9240 H   0  0  0  0  0  0  0  0  0  0  0  0
   19.1830   11.7330   30.9890 H   0  0  0  0  0  0  0  0  0  0  0  0
   19.8700   13.2010   30.2530 H   0  0  0  0  0  0  0  0  0  0  0  0
   22.1780   11.9070   25.8040 C   0  0  0  0  0  0  0  0  0  0  0  0
   22.1690   12.9960   25.7510 H   0  0  0  0  0  0  0  0  0  0  0  0
   23.1190   11.5720   26.2410 H   0  0  0  0  0  0  0  0  0  0  0  0
   22.2250    9.9790   24.0560 C   0  0  0  0  0  0  0  0  0  0  0  0
   22.0720    9.5580   22.7890 N   0  0  0  0  0  0  0  0  0  0  0  0
   22.5620    9.0810   24.9770 N   0  0  0  0  0  0  0  0  0  0  0  0
   22.6950    8.1150   24.7150 H   0  0  0  0  0  0  0  0  0  0  0  0
   22.6850    9.3650   25.9380 H   0  0  0  0  0  0  0  0  0  0  0  0
   21.6890   12.2170   23.3710 C   0  0  0  0  0  0  0  0  0  0  0  0
   21.5360   13.2630   23.5940 H   0  0  0  0  0  0  0  0  0  0  0  0
   21.5370   11.7510   22.0630 C   0  0  0  0  0  0  0  0  0  0  0  0
   21.7360   10.3970   21.7980 C   0  0  0  0  0  0  0  0  0  0  0  0
   21.5880    9.9070   20.5040 C   0  0  0  0  0  0  0  0  0  0  0  0
   21.7410    8.8570   20.3020 H   0  0  0  0  0  0  0  0  0  0  0  0
   19.4110   12.8350   18.1190 C   0  0  0  0  0  0  0  0  0  0  0  0
   18.7440   12.0760   18.4990 H   0  0  0  0  0  0  0  0  0  0  0  0
   18.9990   13.6590   17.0770 C   0  0  0  0  0  0  0  0  0  0  0  0
   18.0130   13.5420   16.6520 H   0  0  0  0  0  0  0  0  0  0  0  0
   19.8580   14.6340   16.5830 C   0  0  0  0  0  0  0  0  0  0  0  0
   19.5390   15.2700   15.7710 H   0  0  0  0  0  0  0  0  0  0  0  0
  1  2  2  0  0  0  0
  1  5  1  0  0  0  0
  1 65  1  0  0  0  0
  2  3  1  0  0  0  0
  2 11  1  0  0  0  0
  3  4  1  0  0  0  0
  3 69  2  0  0  0  0
  5  6  1  0  0  0  0
  5  8  2  0  0  0  0
  6  7  1  0  0  0  0
  6 63  2  0  0  0  0
  8  9  1  0  0  0  0
  8 61  1  0  0  0  0
 10 51  1  0  0  0  0
 10 54  2  0  0  0  0
 10 59  1  0  0  0  0
 11 12  1  0  0  0  0
 11 13  1  0  0  0  0
 11 14  1  0  0  0  0
 15 16  1  0  0  0  0
 15 17  1  0  0  0  0
 15 41  1  0  0  0  0
 15 51  1  0  0  0  0
 17 38  1  0  0  0  0
 17 40  2  0  0  0  0
 18 19  1  0  0  0  0
 18 26  1  0  0  0  0
 18 32  1  0  0  0  0
 18 35  1  0  0  0  0
 20 21  1  0  0  0  0
 20 22  1  0  0  0  0
 20 26  1  0  0  0  0
 20 29  1  0  0  0  0
 23 24  1  0  0  0  0
 23 25  1  0  0  0  0
 23 29  1  0  0  0  0
 23 32  1  0  0  0  0
 26 27  1  0  0  0  0
 26 28  1  0  0  0  0
 29 30  1  0  0  0  0
 29 31  1  0  0  0  0
 32 33  1  0  0  0  0
 32 34  1  0  0  0  0
 35 36  1  0  0  0  0
 35 37  1  0  0  0  0
 35 38  1  0  0  0  0
 38 39  1  0  0  0  0
 41 42  1  0  0  0  0
 41 43  1  0  0  0  0
 41 44  1  0  0  0  0
 44 45  1  0  0  0  0
 44 46  1  0  0  0  0
 44 47  1  0  0  0  0
 47 48  1  0  0  0  0
 47 49  1  0  0  0  0
 47 50  1  0  0  0  0
 51 52  1  0  0  0  0
 51 53  1  0  0  0  0
 54 55  1  0  0  0  0
 54 56  1  0  0  0  0
 55 62  2  0  0  0  0
 56 57  1  0  0  0  0
 56 58  1  0  0  0  0
 59 60  1  0  0  0  0
 59 61  2  0  0  0  0
 61 62  1  0  0  0  0
 62 63  1  0  0  0  0
 63 64  1  0  0  0  0
 65 66  1  0  0  0  0
 65 67  2  0  0  0  0
 67 68  1  0  0  0  0
 67 69  1  0  0  0  0
 69 70  1  0  0  0  0
M  END
>  <PARENT_CMPD_ID>
3RVI

>  <STANDARD_TYPE>
IC50

>  <RELATION>
=

>  <STANDARD_VALUE>
0.011

>  <STANDARD_UNITS>
uM

>  <COMPOUND_KEY>
50

>  <PUBMED_ID>
21707077

>  <JOURNAL>
J.Med.Chem.

>  <YEAR>
2011

>  <VOLUME>
54

>  <FIRST_PAGE>
5836

>  <Company>
Amgen

>  <Resolution>
2.6500001

>  <idx>
34

>  <Model>
Train

>  <target>
7.9586072

>  <des_pred_mlr>
7.6491098

>  <RF_Canvas>
7.5661888

>  <DNN_Canvas>
7.458921

>  <pred_CoMFA>
8.1336002

>  <pred_COMSIA>
8.6934004

>  <pred_abm5>
8.5230579

>  <pred_ff8>
6.4950371

>  <pred_gau6>
8.1633921

>  <CID>
BACE_34

>  <active>
1

>  <des_class_bayes>
1

>  <maacs_class_bayes>
0

>  <radial_class_bayes>
1

>  <dend_class_bayes>
1

>  <molprint_class_bayes>
1

>  <RF_canvas>
1

>  <DNN_canvas>
1

$$$$
2IRZ_7270
  MOE2015           3D

 70 73  0  0  1  0  0  0  0  0999 V2000
   30.0120    9.2460   23.1210 C   0  0  0  0  0  0  0  0  0  0  0  0
   30.5380   10.3460   22.2830 C   0  0  0  0  0  0  0  0  0  0  0  0
   31.9390   10.7390   22.2280 C   0  0  0  0  0  0  0  0  0  0  0  0
   32.8800    9.9850   23.0030 C   0  0  0  0  0  0  0  0  0  0  0  0
   32.3570    8.9000   23.8020 C   0  0  0  0  0  0  0  0  0  0  0  0
   30.9610    8.5120   23.9020 C   0  0  0  0  0  0  0  0  0  0  0  0
   29.6690   11.1730   21.4210 C   0  0  3  0  0  0  0  0  0  0  0  0
   28.7290   11.9620   22.2050 N   0  0  0  0  0  0  0  0  0  0  0  0
   28.7710   13.3210   22.3130 C   0  0  0  0  0  0  0  0  0  0  0  0
   27.7270   13.9100   23.1660 C   0  0  0  0  0  0  0  0  0  0  0  0
   26.3980   13.3820   23.2090 C   0  0  0  0  0  0  0  0  0  0  0  0
   25.4080   13.9380   24.0730 C   0  0  0  0  0  0  0  0  0  0  0  0
   25.7260   15.0290   24.9210 C   0  0  0  0  0  0  0  0  0  0  0  0
   27.0510   15.5910   24.9060 C   0  0  0  0  0  0  0  0  0  0  0  0
   28.0410   15.0350   24.0020 C   0  0  0  0  0  0  0  0  0  0  0  0
   27.3180   16.5910   25.8220 N   0  0  0  0  0  0  0  0  0  0  0  0
   28.6760   16.5990   26.6920 S   0  0  0  0  0  0  0  0  0  0  0  0
   29.9200   17.5680   25.8260 C   0  0  0  0  0  0  0  0  0  0  0  0
   26.4380   17.7710   25.9380 C   0  0  0  0  0  0  0  0  0  0  0  0
   29.6250   14.0150   21.7580 O   0  0  0  0  0  0  0  0  0  0  0  0
   29.1670   15.2600   26.7440 O   0  0  0  0  0  0  0  0  0  0  0  0
   28.3290   17.2550   27.9220 O   0  0  0  0  0  0  0  0  0  0  0  0
   28.8800   10.2850   20.4220 C   0  0  0  0  0  0  0  0  0  0  0  0
   33.2530    8.1900   24.4980 F   0  0  0  0  0  0  0  0  0  0  0  0
   22.3370   10.3150   23.4580 C   0  0  3  0  0  0  0  0  0  0  0  0
   23.4820    9.5020   23.9030 N   0  3  0  0  0  0  0  0  0  0  0  0
   21.0730    9.8770   24.2110 C   0  0  0  0  0  0  0  0  0  0  0  0
   22.1110   10.2400   21.9400 C   0  0  0  0  0  0  0  0  0  0  0  0
   25.3230   11.8090   19.4380 C   0  0  0  0  0  0  0  0  0  0  0  0
   24.2740   12.7170   19.8760 C   0  0  0  0  0  0  0  0  0  0  0  0
   23.2010   12.1980   20.6970 C   0  0  0  0  0  0  0  0  0  0  0  0
   23.2210   10.7730   21.0570 C   0  0  0  0  0  0  0  0  0  0  0  0
   24.2720    9.8630   20.6060 C   0  0  0  0  0  0  0  0  0  0  0  0
   25.3470   10.3940   19.7860 C   0  0  0  0  0  0  0  0  0  0  0  0
   22.0320   12.8210   24.2180 N   0  0  0  0  0  0  0  0  0  0  0  0
   22.8870   13.7630   24.3680 N   0  0  0  0  0  0  0  0  0  0  0  0
   24.1280   13.2840   24.0700 C   0  0  0  0  0  0  0  0  0  0  0  0
   23.9750   12.0210   23.7900 O   0  0  0  0  0  0  0  0  0  0  0  0
   22.6990   11.7100   23.8550 C   0  0  0  0  0  0  0  0  0  0  0  0
   28.9590    9.0070   23.1430 H   0  0  0  0  0  0  0  0  0  0  0  0
   32.2590   11.5730   21.6220 H   0  0  0  0  0  0  0  0  0  0  0  0
   33.9350   10.2180   22.9900 H   0  0  0  0  0  0  0  0  0  0  0  0
   30.6500    7.7000   24.5420 H   0  0  0  0  0  0  0  0  0  0  0  0
   30.3200   11.8520   20.8710 H   0  0  0  0  0  0  0  0  0  0  0  0
   27.9990   11.4710   22.7010 H   0  0  0  0  0  0  0  0  0  0  0  0
   26.1390   12.5470   22.5750 H   0  0  0  0  0  0  0  0  0  0  0  0
   24.9740   15.4390   25.5790 H   0  0  0  0  0  0  0  0  0  0  0  0
   29.0270   15.4730   23.9570 H   0  0  0  0  0  0  0  0  0  0  0  0
   30.1830   17.0700   24.8930 H   0  0  0  0  0  0  0  0  0  0  0  0
   30.8080   17.6610   26.4510 H   0  0  0  0  0  0  0  0  0  0  0  0
   29.5220   18.5600   25.6090 H   0  0  0  0  0  0  0  0  0  0  0  0
   25.5630   17.6350   25.3030 H   0  0  0  0  0  0  0  0  0  0  0  0
   26.9810   18.6620   25.6230 H   0  0  0  0  0  0  0  0  0  0  0  0
   26.1200   17.8870   26.9740 H   0  0  0  0  0  0  0  0  0  0  0  0
   28.2300    9.6070   20.9740 H   0  0  0  0  0  0  0  0  0  0  0  0
   29.5800    9.7070   19.8190 H   0  0  0  0  0  0  0  0  0  0  0  0
   28.2760   10.9180   19.7720 H   0  0  0  0  0  0  0  0  0  0  0  0
   23.3170    8.5330   23.6710 H   0  0  0  0  0  0  0  0  0  0  0  0
   23.5920    9.5940   24.9030 H   0  0  0  0  0  0  0  0  0  0  0  0
   24.3210    9.8210   23.4410 H   0  0  0  0  0  0  0  0  0  0  0  0
   20.8110    8.8600   23.9200 H   0  0  0  0  0  0  0  0  0  0  0  0
   20.2510   10.5490   23.9630 H   0  0  0  0  0  0  0  0  0  0  0  0
   21.2590    9.9110   25.2840 H   0  0  0  0  0  0  0  0  0  0  0  0
   21.2080   10.8060   21.7130 H   0  0  0  0  0  0  0  0  0  0  0  0
   21.9580    9.1920   21.6810 H   0  0  0  0  0  0  0  0  0  0  0  0
   26.1210   12.2020   18.8260 H   0  0  0  0  0  0  0  0  0  0  0  0
   24.2960   13.7590   19.5940 H   0  0  0  0  0  0  0  0  0  0  0  0
   22.4040   12.8430   21.0370 H   0  0  0  0  0  0  0  0  0  0  0  0
   24.2500    8.8180   20.8770 H   0  0  0  0  0  0  0  0  0  0  0  0
   26.1460    9.7540   19.4420 H   0  0  0  0  0  0  0  0  0  0  0  0
  1  2  1  0  0  0  0
  1  6  2  0  0  0  0
  1 40  1  0  0  0  0
  2  3  2  0  0  0  0
  2  7  1  0  0  0  0
  3  4  1  0  0  0  0
  3 41  1  0  0  0  0
  4  5  2  0  0  0  0
  4 42  1  0  0  0  0
  5  6  1  0  0  0  0
  5 24  1  0  0  0  0
  6 43  1  0  0  0  0
  7  8  1  0  0  0  0
  7 23  1  0  0  0  0
  7 44  1  0  0  0  0
  8  9  1  0  0  0  0
  8 45  1  0  0  0  0
  9 10  1  0  0  0  0
  9 20  2  0  0  0  0
 10 11  1  0  0  0  0
 10 15  2  0  0  0  0
 11 12  2  0  0  0  0
 11 46  1  0  0  0  0
 12 13  1  0  0  0  0
 12 37  1  0  0  0  0
 13 14  2  0  0  0  0
 13 47  1  0  0  0  0
 14 15  1  0  0  0  0
 14 16  1  0  0  0  0
 15 48  1  0  0  0  0
 16 17  1  0  0  0  0
 16 19  1  0  0  0  0
 17 18  1  0  0  0  0
 17 21  2  0  0  0  0
 17 22  2  0  0  0  0
 18 49  1  0  0  0  0
 18 50  1  0  0  0  0
 18 51  1  0  0  0  0
 19 52  1  0  0  0  0
 19 53  1  0  0  0  0
 19 54  1  0  0  0  0
 23 55  1  0  0  0  0
 23 56  1  0  0  0  0
 23 57  1  0  0  0  0
 25 26  1  0  0  0  0
 25 27  1  0  0  0  0
 25 28  1  0  0  0  0
 25 39  1  0  0  0  0
 26 58  1  0  0  0  0
 26 59  1  0  0  0  0
 26 60  1  0  0  0  0
 27 61  1  0  0  0  0
 27 62  1  0  0  0  0
 27 63  1  0  0  0  0
 28 32  1  0  0  0  0
 28 64  1  0  0  0  0
 28 65  1  0  0  0  0
 29 30  1  0  0  0  0
 29 34  2  0  0  0  0
 29 66  1  0  0  0  0
 30 31  2  0  0  0  0
 30 67  1  0  0  0  0
 31 32  1  0  0  0  0
 31 68  1  0  0  0  0
 32 33  2  0  0  0  0
 33 34  1  0  0  0  0
 33 69  1  0  0  0  0
 34 70  1  0  0  0  0
 35 36  1  0  0  0  0
 35 39  2  0  0  0  0
 36 37  2  0  0  0  0
 37 38  1  0  0  0  0
 38 39  1  0  0  0  0
M  CHG  1  26   1
M  END
>  <PARENT_CMPD_ID>
2IRZ

>  <STANDARD_TYPE>
IC50

>  <RELATION>
=

>  <STANDARD_VALUE>
0.012

>  <STANDARD_UNITS>
uM

>  <COMPOUND_KEY>
8

>  <PUBMED_ID>
17149856

>  <JOURNAL>
J.Med.Chem.

>  <YEAR>
2006

>  <VOLUME>
49

>  <FIRST_PAGE>
7270

>  <Company>
Merck

>  <Resolution>
1.8

>  <idx>
35

>  <Model>
Train

>  <target>
7.9208188

>  <des_pred_mlr>
6.9983401

>  <RF_Canvas>
7.791616

>  <DNN_Canvas>
7.534544

>  <pred_CoMFA>
7.1568999

>  <pred_COMSIA>
6.7328

>  <pred_abm5>
7.353415

>  <pred_ff8>
7.3414383

>  <pred_gau6>
7.1837978

>  <CID>
BACE_35

>  <active>
1

>  <des_class_bayes>
1

>  <maacs_class_bayes>
1

>  <radial_class_bayes>
1

>  <dend_class_bayes>
1

>  <molprint_class_bayes>
1

>  <RF_canvas>
1

>  <DNN_canvas>
1

$$$$
4B1D_9297
  MOE2015           3D

 53 56  0  0  1  0  0  0  0  0999 V2000
   18.9070    7.9900   18.8170 C   0  0  0  0  0  0  0  0  0  0  0  0
   19.1700    9.1600   19.7150 C   0  0  0  0  0  0  0  0  0  0  0  0
   20.4320    9.2700   20.2580 C   0  0  0  0  0  0  0  0  0  0  0  0
   20.7760   10.3460   21.0660 C   0  0  0  0  0  0  0  0  0  0  0  0
   19.8130   11.3050   21.3280 C   0  0  0  0  0  0  0  0  0  0  0  0
   18.5360   11.2070   20.8070 C   0  0  0  0  0  0  0  0  0  0  0  0
   18.2090   10.1240   20.0090 C   0  0  0  0  0  0  0  0  0  0  0  0
   16.9300   10.0400   19.4580 O   0  0  0  0  0  0  0  0  0  0  0  0
   16.0780    9.1970   20.2610 C   0  0  0  0  0  0  0  0  0  0  0  0
   17.5730   12.2930   21.1530 C   0  0  0  0  0  0  0  0  0  0  0  0
   22.1760   10.4800   21.6390 C   0  0  3  0  0  0  0  0  0  0  0  0
   22.2970   11.6290   22.5680 N   0  0  0  0  0  0  0  0  0  0  0  0
   22.5020   11.0940   23.7220 C   0  0  0  0  0  0  0  0  0  0  0  0
   22.5550    9.6160   23.6440 C   0  0  0  0  0  0  0  0  0  0  0  0
   22.4090    9.2540   22.4190 N   0  3  0  0  0  0  0  0  0  0  0  0
   22.7850    8.8480   24.7600 N   0  0  0  0  0  0  0  0  0  0  0  0
   22.7810   11.8340   24.9940 C   0  0  0  0  0  0  0  0  0  0  0  0
   23.2310   10.7380   20.5810 C   0  0  0  0  0  0  0  0  0  0  0  0
   22.9170   11.1570   19.2900 C   0  0  0  0  0  0  0  0  0  0  0  0
   23.9210   11.4020   18.3600 C   0  0  0  0  0  0  0  0  0  0  0  0
   25.2520   11.2610   18.7140 C   0  0  0  0  0  0  0  0  0  0  0  0
   25.5950   10.8820   20.0020 C   0  0  0  0  0  0  0  0  0  0  0  0
   24.5760   10.6250   20.9130 C   0  0  0  0  0  0  0  0  0  0  0  0
   26.9860   10.7810   20.4280 C   0  0  0  0  0  0  0  0  0  0  0  0
   27.4490    9.7530   21.2260 C   0  0  0  0  0  0  0  0  0  0  0  0
   28.6890    9.6930   21.7290 N   0  0  0  0  0  0  0  0  0  0  0  0
   29.4980   10.7030   21.3660 C   0  0  0  0  0  0  0  0  0  0  0  0
   29.2040   11.7410   20.5670 N   0  0  0  0  0  0  0  0  0  0  0  0
   27.9320   11.7530   20.1300 C   0  0  0  0  0  0  0  0  0  0  0  0
   19.8070    7.3800   18.7420 H   0  0  0  0  0  0  0  0  0  0  0  0
   18.6270    8.3480   17.8260 H   0  0  0  0  0  0  0  0  0  0  0  0
   18.0960    7.3900   19.2300 H   0  0  0  0  0  0  0  0  0  0  0  0
   21.1670    8.5060   20.0510 H   0  0  0  0  0  0  0  0  0  0  0  0
   20.0650   12.1490   21.9530 H   0  0  0  0  0  0  0  0  0  0  0  0
   15.0870    9.1480   19.8100 H   0  0  0  0  0  0  0  0  0  0  0  0
   16.0000    9.6110   21.2660 H   0  0  0  0  0  0  0  0  0  0  0  0
   16.5040    8.1950   20.3130 H   0  0  0  0  0  0  0  0  0  0  0  0
   18.0670   13.0270   21.7900 H   0  0  0  0  0  0  0  0  0  0  0  0
   16.7210   11.8680   21.6830 H   0  0  0  0  0  0  0  0  0  0  0  0
   17.2280   12.7780   20.2400 H   0  0  0  0  0  0  0  0  0  0  0  0
   22.8610    7.8440   24.6750 H   0  0  0  0  0  0  0  0  0  0  0  0
   22.8780    9.2870   25.6650 H   0  0  0  0  0  0  0  0  0  0  0  0
   22.9120   11.1210   25.8080 H   0  0  0  0  0  0  0  0  0  0  0  0
   21.9440   12.4950   25.2210 H   0  0  0  0  0  0  0  0  0  0  0  0
   23.6900   12.4250   24.8790 H   0  0  0  0  0  0  0  0  0  0  0  0
   21.8830   11.2930   19.0090 H   0  0  0  0  0  0  0  0  0  0  0  0
   23.6610   11.7040   17.3560 H   0  0  0  0  0  0  0  0  0  0  0  0
   26.0260   11.4470   17.9840 H   0  0  0  0  0  0  0  0  0  0  0  0
   24.8400   10.3260   21.9170 H   0  0  0  0  0  0  0  0  0  0  0  0
   26.7690    8.9470   21.4590 H   0  0  0  0  0  0  0  0  0  0  0  0
   30.5020   10.6760   21.7640 H   0  0  0  0  0  0  0  0  0  0  0  0
   27.6250   12.5770   19.5030 H   0  0  0  0  0  0  0  0  0  0  0  0
   22.4470    8.3100   22.0610 H   0  0  0  0  0  0  0  0  0  0  0  0
  1  2  1  0  0  0  0
  1 30  1  0  0  0  0
  1 31  1  0  0  0  0
  1 32  1  0  0  0  0
  2  3  1  0  0  0  0
  2  7  2  0  0  0  0
  3  4  2  0  0  0  0
  3 33  1  0  0  0  0
  4  5  1  0  0  0  0
  4 11  1  0  0  0  0
  5  6  2  0  0  0  0
  5 34  1  0  0  0  0
  6  7  1  0  0  0  0
  6 10  1  0  0  0  0
  7  8  1  0  0  0  0
  8  9  1  0  0  0  0
  9 35  1  0  0  0  0
  9 36  1  0  0  0  0
  9 37  1  0  0  0  0
 10 38  1  0  0  0  0
 10 39  1  0  0  0  0
 10 40  1  0  0  0  0
 11 12  1  0  0  0  0
 11 15  1  0  0  0  0
 11 18  1  0  0  0  0
 12 13  2  0  0  0  0
 13 14  1  0  0  0  0
 13 17  1  0  0  0  0
 14 15  2  0  0  0  0
 14 16  1  0  0  0  0
 15 53  1  0  0  0  0
 16 41  1  0  0  0  0
 16 42  1  0  0  0  0
 17 43  1  0  0  0  0
 17 44  1  0  0  0  0
 17 45  1  0  0  0  0
 18 19  1  0  0  0  0
 18 23  2  0  0  0  0
 19 20  2  0  0  0  0
 19 46  1  0  0  0  0
 20 21  1  0  0  0  0
 20 47  1  0  0  0  0
 21 22  2  0  0  0  0
 21 48  1  0  0  0  0
 22 23  1  0  0  0  0
 22 24  1  0  0  0  0
 23 49  1  0  0  0  0
 24 25  1  0  0  0  0
 24 29  2  0  0  0  0
 25 26  2  0  0  0  0
 25 50  1  0  0  0  0
 26 27  1  0  0  0  0
 27 28  2  0  0  0  0
 27 51  1  0  0  0  0
 28 29  1  0  0  0  0
 29 52  1  0  0  0  0
M  CHG  1  15   1
M  END
>  <PARENT_CMPD_ID>
4B1D

>  <STANDARD_TYPE>
IC50

>  <RELATION>
=

>  <STANDARD_VALUE>
0.012

>  <STANDARD_UNITS>
uM

>  <COMPOUND_KEY>
(S)-1m

>  <PUBMED_ID>
23017051

>  <JOURNAL>
J.Med.Chem.

>  <YEAR>
2012

>  <VOLUME>
55

>  <FIRST_PAGE>
9297

>  <Company>
AstraZeneca

>  <Resolution>
1.95

>  <idx>
36

>  <Model>
Train

>  <target>
7.9208188

>  <des_pred_mlr>
6.9003601

>  <RF_Canvas>
7.522646

>  <DNN_Canvas>
7.2390223

>  <pred_CoMFA>
7.5110998

>  <pred_COMSIA>
7.4591999

>  <pred_abm5>
7.349082

>  <pred_ff8>
5.8467193

>  <pred_gau6>
7.0561771

>  <CID>
BACE_36

>  <active>
1

>  <des_class_bayes>
1

>  <maacs_class_bayes>
0

>  <radial_class_bayes>
1

>  <dend_class_bayes>
1

>  <molprint_class_bayes>
1

>  <RF_canvas>
1

>  <DNN_canvas>
1

$$$$
3IVI_6386
  MOE2015           3D

 74 77  0  0  1  0  0  0  0  0999 V2000
   20.9280   13.3440   28.5090 C   0  0  0  0  0  0  0  0  0  0  0  0
   21.5070   12.5950   27.3440 C   0  0  0  0  0  0  0  0  0  0  0  0
   20.5100   11.5570   26.8530 C   0  0  3  0  0  0  0  0  0  0  0  0
   19.3720   12.1930   26.0370 C   0  0  0  0  0  0  0  0  0  0  0  0
   19.2590   13.5760   25.8230 C   0  0  0  0  0  0  0  0  0  0  0  0
   17.2200   13.2990   24.5600 C   0  0  0  0  0  0  0  0  0  0  0  0
   16.2470   10.9770   24.1940 C   0  0  0  0  0  0  0  0  0  0  0  0
   15.0310   11.7640   23.6920 C   0  0  0  0  0  0  0  0  0  0  0  0
   23.0690   10.7560   22.7130 C   0  0  3  0  0  0  0  0  0  0  0  0
   24.2110   12.9430   22.9700 C   0  0  0  0  0  0  0  0  0  0  0  0
   23.5570    9.7680   21.6510 C   0  0  0  0  0  0  0  0  0  0  0  0
   25.5890   10.1970   20.1710 C   0  0  0  0  0  0  0  0  0  0  0  0
   27.4910   10.5950   18.8050 F   0  0  0  0  0  0  0  0  0  0  0  0
   26.2220   10.8990   19.1350 C   0  0  0  0  0  0  0  0  0  0  0  0
   25.5580   11.9140   18.4450 C   0  0  0  0  0  0  0  0  0  0  0  0
   24.2500   12.2250   18.8080 C   0  0  0  0  0  0  0  0  0  0  0  0
   23.5600   13.1960   18.1740 F   0  0  0  0  0  0  0  0  0  0  0  0
   23.6240   11.5210   19.8420 C   0  0  0  0  0  0  0  0  0  0  0  0
   24.2770   10.5060   20.5310 C   0  0  0  0  0  0  0  0  0  0  0  0
   24.1940   11.6080   23.0850 N   0  0  0  0  0  0  0  0  0  0  0  0
   25.5150   13.6220   23.2920 C   0  0  0  0  0  0  0  0  0  0  0  0
   23.2590   13.6180   22.6080 O   0  0  0  0  0  0  0  0  0  0  0  0
   22.4280   10.0470   23.9140 C   0  0  3  0  0  0  0  0  0  0  0  0
   21.2140    9.3760   23.5640 O   0  0  0  0  0  0  0  0  0  0  0  0
   22.1380   11.0770   24.9900 C   0  0  0  0  0  0  0  0  0  0  0  0
   21.2660   10.6150   26.0520 N   0  3  0  0  0  0  0  0  0  0  0  0
   21.3620   14.5270   29.0430 C   0  0  0  0  0  0  0  0  0  0  0  0
   19.7770   12.8940   29.3100 C   0  0  0  0  0  0  0  0  0  0  0  0
   19.5440   13.8040   30.2830 N   0  0  0  0  0  0  0  0  0  0  0  0
   20.5460   14.7740   30.0770 N   0  0  0  0  0  0  0  0  0  0  0  0
   19.0630   11.6230   28.9950 C   0  0  0  0  0  0  0  0  0  0  0  0
   19.9360   10.7980   28.0500 C   0  0  0  0  0  0  0  0  0  0  0  0
   18.2040   14.1190   25.0880 C   0  0  0  0  0  0  0  0  0  0  0  0
   17.3010   11.9100   24.7520 C   0  0  0  0  0  0  0  0  0  0  0  0
   18.3800   11.3830   25.4920 C   0  0  0  0  0  0  0  0  0  0  0  0
   15.7830   10.0240   25.2760 C   0  0  0  0  0  0  0  0  0  0  0  0
   16.7940   10.1370   23.0460 C   0  0  0  0  0  0  0  0  0  0  0  0
   22.4250   12.0960   27.6540 H   0  0  0  0  0  0  0  0  0  0  0  0
   21.7280   13.2940   26.5380 H   0  0  0  0  0  0  0  0  0  0  0  0
   20.0070   14.2360   26.2370 H   0  0  0  0  0  0  0  0  0  0  0  0
   16.3970   13.7250   24.0050 H   0  0  0  0  0  0  0  0  0  0  0  0
   14.6300   12.3700   24.5040 H   0  0  0  0  0  0  0  0  0  0  0  0
   14.2660   11.0690   23.3450 H   0  0  0  0  0  0  0  0  0  0  0  0
   15.3320   12.4130   22.8700 H   0  0  0  0  0  0  0  0  0  0  0  0
   22.2720   11.3770   22.3060 H   0  0  0  0  0  0  0  0  0  0  0  0
   22.7020    9.2340   21.2370 H   0  0  0  0  0  0  0  0  0  0  0  0
   24.2420    9.0560   22.1110 H   0  0  0  0  0  0  0  0  0  0  0  0
   26.1190    9.4140   20.6920 H   0  0  0  0  0  0  0  0  0  0  0  0
   26.0490   12.4480   17.6450 H   0  0  0  0  0  0  0  0  0  0  0  0
   22.6090   11.7720   20.1110 H   0  0  0  0  0  0  0  0  0  0  0  0
   25.0190   11.1590   23.4560 H   0  0  0  0  0  0  0  0  0  0  0  0
   26.2480   12.8750   23.5950 H   0  0  0  0  0  0  0  0  0  0  0  0
   25.3640   14.3330   24.1040 H   0  0  0  0  0  0  0  0  0  0  0  0
   25.8780   14.1500   22.4100 H   0  0  0  0  0  0  0  0  0  0  0  0
   23.1280    9.2920   24.2720 H   0  0  0  0  0  0  0  0  0  0  0  0
   20.5960   10.0400   23.2490 H   0  0  0  0  0  0  0  0  0  0  0  0
   21.6690   11.9400   24.5170 H   0  0  0  0  0  0  0  0  0  0  0  0
   23.0860   11.3780   25.4360 H   0  0  0  0  0  0  0  0  0  0  0  0
   20.5930    9.9960   25.6230 H   0  0  0  0  0  0  0  0  0  0  0  0
   21.8450   10.0910   26.6930 H   0  0  0  0  0  0  0  0  0  0  0  0
   22.1880   15.1340   28.7030 H   0  0  0  0  0  0  0  0  0  0  0  0
   20.6410   15.5910   30.6630 H   0  0  0  0  0  0  0  0  0  0  0  0
   18.1100   11.8460   28.5150 H   0  0  0  0  0  0  0  0  0  0  0  0
   18.8850   11.0640   29.9140 H   0  0  0  0  0  0  0  0  0  0  0  0
   20.7710   10.3990   28.6260 H   0  0  0  0  0  0  0  0  0  0  0  0
   19.3320    9.9750   27.6680 H   0  0  0  0  0  0  0  0  0  0  0  0
   18.1540   15.1860   24.9300 H   0  0  0  0  0  0  0  0  0  0  0  0
   18.4380   10.3150   25.6410 H   0  0  0  0  0  0  0  0  0  0  0  0
   15.3840   10.5940   26.1150 H   0  0  0  0  0  0  0  0  0  0  0  0
   16.6250    9.4200   25.6140 H   0  0  0  0  0  0  0  0  0  0  0  0
   15.0060    9.3720   24.8770 H   0  0  0  0  0  0  0  0  0  0  0  0
   17.1380   10.7940   22.2470 H   0  0  0  0  0  0  0  0  0  0  0  0
   16.0080    9.4840   22.6670 H   0  0  0  0  0  0  0  0  0  0  0  0
   17.6270    9.5320   23.4030 H   0  0  0  0  0  0  0  0  0  0  0  0
  1  2  1  0  0  0  0
  1 27  2  0  0  0  0
  1 28  1  0  0  0  0
  2  3  1  0  0  0  0
  2 38  1  0  0  0  0
  2 39  1  0  0  0  0
  3  4  1  0  0  0  0
  3 26  1  0  0  0  0
  3 32  1  0  0  0  0
  4  5  1  0  0  0  0
  4 35  2  0  0  0  0
  5 33  2  0  0  0  0
  5 40  1  0  0  0  0
  6 33  1  0  0  0  0
  6 34  2  0  0  0  0
  6 41  1  0  0  0  0
  7  8  1  0  0  0  0
  7 34  1  0  0  0  0
  7 36  1  0  0  0  0
  7 37  1  0  0  0  0
  8 42  1  0  0  0  0
  8 43  1  0  0  0  0
  8 44  1  0  0  0  0
  9 11  1  0  0  0  0
  9 20  1  0  0  0  0
  9 23  1  0  0  0  0
  9 45  1  0  0  0  0
 10 20  1  0  0  0  0
 10 21  1  0  0  0  0
 10 22  2  0  0  0  0
 11 19  1  0  0  0  0
 11 46  1  0  0  0  0
 11 47  1  0  0  0  0
 12 14  1  0  0  0  0
 12 19  2  0  0  0  0
 12 48  1  0  0  0  0
 13 14  1  0  0  0  0
 14 15  2  0  0  0  0
 15 16  1  0  0  0  0
 15 49  1  0  0  0  0
 16 17  1  0  0  0  0
 16 18  2  0  0  0  0
 18 19  1  0  0  0  0
 18 50  1  0  0  0  0
 20 51  1  0  0  0  0
 21 52  1  0  0  0  0
 21 53  1  0  0  0  0
 21 54  1  0  0  0  0
 23 24  1  0  0  0  0
 23 25  1  0  0  0  0
 23 55  1  0  0  0  0
 24 56  1  0  0  0  0
 25 26  1  0  0  0  0
 25 57  1  0  0  0  0
 25 58  1  0  0  0  0
 26 59  1  0  0  0  0
 26 60  1  0  0  0  0
 27 30  1  0  0  0  0
 27 61  1  0  0  0  0
 28 29  2  0  0  0  0
 28 31  1  0  0  0  0
 29 30  1  0  0  0  0
 30 62  1  0  0  0  0
 31 32  1  0  0  0  0
 31 63  1  0  0  0  0
 31 64  1  0  0  0  0
 32 65  1  0  0  0  0
 32 66  1  0  0  0  0
 33 67  1  0  0  0  0
 34 35  1  0  0  0  0
 35 68  1  0  0  0  0
 36 69  1  0  0  0  0
 36 70  1  0  0  0  0
 36 71  1  0  0  0  0
 37 72  1  0  0  0  0
 37 73  1  0  0  0  0
 37 74  1  0  0  0  0
M  CHG  1  26   1
M  END
>  <PARENT_CMPD_ID>
3IVI

>  <STANDARD_TYPE>
IC50

>  <RELATION>
=

>  <STANDARD_VALUE>
0.012

>  <STANDARD_UNITS>
uM

>  <COMPOUND_KEY>
56

>  <PUBMED_ID>
19811916

>  <JOURNAL>
Bioorg.Med.Chem.Lett.

>  <YEAR>
2009

>  <VOLUME>
19

>  <FIRST_PAGE>
6386

>  <Company>
Elan

>  <Resolution>
2.2

>  <idx>
37

>  <Model>
Train

>  <target>
7.9208188

>  <des_pred_mlr>
6.6384201

>  <RF_Canvas>
7.8754005

>  <DNN_Canvas>
7.6574907

>  <pred_CoMFA>
7.6743999

>  <pred_COMSIA>
8.0502996

>  <pred_abm5>
7.7025795

>  <pred_ff8>
6.9799294

>  <pred_gau6>
7.8306522

>  <CID>
BACE_37

>  <active>
1

>  <des_class_bayes>
1

>  <maacs_class_bayes>
1

>  <radial_class_bayes>
1

>  <dend_class_bayes>
1

>  <molprint_class_bayes>
1

>  <RF_canvas>
1

>  <DNN_canvas>
1

$$$$
4J1F_3980
  MOE2015           3D

 45 47  0  0  1  0  0  0  0  0999 V2000
   22.2430   12.1820   23.3240 C   0  0  3  0  0  0  0  0  0  0  0  0
   21.3360   11.6930   22.1840 C   0  0  0  0  0  0  0  0  0  0  0  0
   22.4870   11.1610   24.2990 O   0  0  0  0  0  0  0  0  0  0  0  0
   22.4250    9.8580   23.9230 C   0  0  0  0  0  0  0  0  0  0  0  0
   22.1800    9.4380   22.7010 N   0  0  0  0  0  0  0  0  0  0  0  0
   21.8580   10.3450   21.6100 C   0  0  3  0  0  0  0  0  0  0  0  0
   23.0630   10.6740   20.7100 C   0  0  0  0  0  0  0  0  0  0  0  0
   24.3250   10.2930   21.1350 C   0  0  0  0  0  0  0  0  0  0  0  0
   25.4400   10.6010   20.3470 C   0  0  0  0  0  0  0  0  0  0  0  0
   25.3320   11.3260   19.1410 C   0  0  0  0  0  0  0  0  0  0  0  0
   24.0570   11.7370   18.7420 C   0  0  0  0  0  0  0  0  0  0  0  0
   22.9180   11.4040   19.5100 C   0  0  0  0  0  0  0  0  0  0  0  0
   21.6710   11.8490   19.0800 F   0  0  0  0  0  0  0  0  0  0  0  0
   22.6960    8.9410   24.9360 N   0  0  0  0  0  0  0  0  0  0  0  0
   20.6990    9.6650   20.8620 C   0  0  0  0  0  0  0  0  0  0  0  0
   26.6520   10.2210   20.8770 N   0  0  0  0  0  0  0  0  0  0  0  0
   27.9050   10.5420   20.4280 C   0  0  0  0  0  0  0  0  0  0  0  0
   29.0210   10.0550   21.2450 C   0  0  0  0  0  0  0  0  0  0  0  0
   28.1240   11.1820   19.4170 O   0  0  0  0  0  0  0  0  0  0  0  0
   28.7550    9.1330   22.1910 N   0  0  0  0  0  0  0  0  0  0  0  0
   29.7220    8.6530   22.9720 C   0  0  0  0  0  0  0  0  0  0  0  0
   31.0530    9.1290   22.8580 C   0  0  0  0  0  0  0  0  0  0  0  0
   31.3460   10.1400   21.8740 C   0  0  0  0  0  0  0  0  0  0  0  0
   30.3120   10.6080   21.0480 C   0  0  0  0  0  0  0  0  0  0  0  0
   32.0890    8.6110   23.7160 C   0  0  0  0  0  0  0  0  0  0  0  0
   32.9380    8.2130   24.3890 N   0  0  0  0  0  0  0  0  0  0  0  0
   21.5300   13.3070   24.0880 C   0  0  0  0  0  0  0  0  0  0  0  0
   22.3570   13.7280   25.1290 F   0  0  0  0  0  0  0  0  0  0  0  0
   21.4720   14.3750   23.2210 F   0  0  0  0  0  0  0  0  0  0  0  0
   20.2290   12.9130   24.5340 F   0  0  0  0  0  0  0  0  0  0  0  0
   23.1790   12.4980   22.8620 H   0  0  0  0  0  0  0  0  0  0  0  0
   21.3240   12.4400   21.3900 H   0  0  0  0  0  0  0  0  0  0  0  0
   20.3250   11.5520   22.5660 H   0  0  0  0  0  0  0  0  0  0  0  0
   24.4480    9.7620   22.0680 H   0  0  0  0  0  0  0  0  0  0  0  0
   26.2040   11.5550   18.5470 H   0  0  0  0  0  0  0  0  0  0  0  0
   23.9410   12.3150   17.8370 H   0  0  0  0  0  0  0  0  0  0  0  0
   22.7050    7.9520   24.7330 H   0  0  0  0  0  0  0  0  0  0  0  0
   22.8840    9.2650   25.8740 H   0  0  0  0  0  0  0  0  0  0  0  0
   19.8860    9.4630   21.5590 H   0  0  0  0  0  0  0  0  0  0  0  0
   21.0470    8.7280   20.4280 H   0  0  0  0  0  0  0  0  0  0  0  0
   20.3430   10.3220   20.0690 H   0  0  0  0  0  0  0  0  0  0  0  0
   26.6120    9.6330   21.6980 H   0  0  0  0  0  0  0  0  0  0  0  0
   29.4890    7.8910   23.7010 H   0  0  0  0  0  0  0  0  0  0  0  0
   32.3470   10.5320   21.7730 H   0  0  0  0  0  0  0  0  0  0  0  0
   30.4920   11.3590   20.2930 H   0  0  0  0  0  0  0  0  0  0  0  0
  1  2  1  0  0  0  0
  1  3  1  0  0  0  0
  1 27  1  0  0  0  0
  1 31  1  0  0  0  0
  2  6  1  0  0  0  0
  2 32  1  0  0  0  0
  2 33  1  0  0  0  0
  3  4  1  0  0  0  0
  4  5  2  0  0  0  0
  4 14  1  0  0  0  0
  5  6  1  0  0  0  0
  6  7  1  0  0  0  0
  6 15  1  0  0  0  0
  7  8  1  0  0  0  0
  7 12  2  0  0  0  0
  8  9  2  0  0  0  0
  8 34  1  0  0  0  0
  9 10  1  0  0  0  0
  9 16  1  0  0  0  0
 10 11  2  0  0  0  0
 10 35  1  0  0  0  0
 11 12  1  0  0  0  0
 11 36  1  0  0  0  0
 12 13  1  0  0  0  0
 14 37  1  0  0  0  0
 14 38  1  0  0  0  0
 15 39  1  0  0  0  0
 15 40  1  0  0  0  0
 15 41  1  0  0  0  0
 16 17  1  0  0  0  0
 16 42  1  0  0  0  0
 17 18  1  0  0  0  0
 17 19  2  0  0  0  0
 18 20  1  0  0  0  0
 18 24  2  0  0  0  0
 20 21  2  0  0  0  0
 21 22  1  0  0  0  0
 21 43  1  0  0  0  0
 22 23  2  0  0  0  0
 22 25  1  0  0  0  0
 23 24  1  0  0  0  0
 23 44  1  0  0  0  0
 24 45  1  0  0  0  0
 25 26  3  0  0  0  0
 27 28  1  0  0  0  0
 27 29  1  0  0  0  0
 27 30  1  0  0  0  0
M  END
>  <PARENT_CMPD_ID>
4J1F

>  <STANDARD_TYPE>
IC50

>  <RELATION>
=

>  <STANDARD_VALUE>
0.012

>  <STANDARD_UNITS>
uM

>  <COMPOUND_KEY>
89

>  <PUBMED_ID>
23590342

>  <JOURNAL>
J.Med.Chem.

>  <YEAR>
2013

>  <VOLUME>
56

>  <FIRST_PAGE>
3980

>  <Company>
Roche

>  <Resolution>
2.25

>  <idx>
38

>  <Model>
Train

>  <target>
7.9208188

>  <des_pred_mlr>
6.95612

>  <RF_Canvas>
7.1083856

>  <DNN_Canvas>
7.3327127

>  <pred_CoMFA>
7.5774999

>  <pred_COMSIA>
6.7651

>  <pred_abm5>
7.6428118

>  <pred_ff8>
7.4227643

>  <pred_gau6>
7.4495339

>  <CID>
BACE_38

>  <active>
1

>  <des_class_bayes>
1

>  <maacs_class_bayes>
1

>  <radial_class_bayes>
1

>  <dend_class_bayes>
1

>  <molprint_class_bayes>
1

>  <RF_canvas>
1

>  <DNN_canvas>
1

$$$$
2XFJ_4639
  MOE2015           3D

 87 90  0  0  1  0  0  0  0  0999 V2000
   27.2620   14.7570   24.5120 C   0  0  0  0  0  0  0  0  0  0  0  0
   25.9930   14.2470   24.3390 C   0  0  0  0  0  0  0  0  0  0  0  0
   25.7640   13.2670   23.3870 C   0  0  0  0  0  0  0  0  0  0  0  0
   26.8120   12.7760   22.6210 C   0  0  0  0  0  0  0  0  0  0  0  0
   28.0960   13.2770   22.8140 C   0  0  0  0  0  0  0  0  0  0  0  0
   28.3140   14.2810   23.7630 C   0  0  0  0  0  0  0  0  0  0  0  0
   24.3810   12.7530   23.2480 C   0  0  0  0  0  0  0  0  0  0  0  0
   24.3310   11.3890   23.1840 N   0  0  0  0  0  0  0  0  0  0  0  0
   23.3980   13.4990   23.2390 O   0  0  0  0  0  0  0  0  0  0  0  0
   23.1340   10.6880   22.7290 C   0  0  3  0  0  0  0  0  0  0  0  0
   23.4990    9.7090   21.6090 C   0  0  0  0  0  0  0  0  0  0  0  0
   22.4920   10.0000   23.9400 C   0  0  3  0  0  0  0  0  0  0  0  0
   21.3730    9.1970   23.5340 O   0  0  0  0  0  0  0  0  0  0  0  0
   24.3070   10.3940   20.5320 C   0  0  0  0  0  0  0  0  0  0  0  0
   21.9120   11.0000   24.9580 C   0  0  0  0  0  0  0  0  0  0  0  0
   21.3210   10.2510   26.0790 N   0  3  0  0  0  0  0  0  0  0  0  0
   20.2780   11.0060   26.8240 C   0  0  3  0  0  0  0  0  0  0  0  0
   19.2140   11.5760   25.9050 C   0  0  0  0  0  0  0  0  0  0  0  0
   18.2990   10.6390   25.5120 N   0  0  0  0  0  0  0  0  0  0  0  0
   19.1650   12.7530   25.5520 O   0  0  0  0  0  0  0  0  0  0  0  0
   17.2440   10.9910   24.5590 C   0  0  0  0  0  0  0  0  0  0  0  0
   20.8960   12.1060   27.6460 C   0  0  0  0  0  0  0  0  0  0  0  0
   16.9670    9.8060   23.6640 C   0  0  0  0  0  0  0  0  0  0  0  0
   15.8330   10.0760   22.6870 C   0  0  0  0  0  0  0  0  0  0  0  0
   14.5670   10.5160   23.4120 C   0  0  0  0  0  0  0  0  0  0  0  0
   14.8570   11.7030   24.3250 C   0  0  0  0  0  0  0  0  0  0  0  0
   15.9730   11.3660   25.3100 C   0  0  0  0  0  0  0  0  0  0  0  0
   23.9000   11.6050   19.9930 C   0  0  0  0  0  0  0  0  0  0  0  0
   24.6900   12.2000   19.0200 C   0  0  0  0  0  0  0  0  0  0  0  0
   25.8580   11.5970   18.5800 C   0  0  0  0  0  0  0  0  0  0  0  0
   26.2550   10.3880   19.1160 C   0  0  0  0  0  0  0  0  0  0  0  0
   25.4760    9.7980   20.0970 C   0  0  0  0  0  0  0  0  0  0  0  0
   29.2370   12.8700   22.1040 N   0  0  0  0  0  0  0  0  0  0  0  0
   28.9870   11.9300   21.0170 C   0  0  0  0  0  0  0  0  0  0  0  0
   29.4140   10.5570   21.4510 C   0  0  0  0  0  0  0  0  0  0  0  0
   27.4780   15.7760   25.4650 N   0  0  0  0  0  0  0  0  0  0  0  0
   26.6040   16.9240   25.4860 C   0  0  0  0  0  0  0  0  0  0  0  0
   27.2620   17.8700   26.4730 C   0  0  0  0  0  0  0  0  0  0  0  0
   28.4530   17.1490   27.0590 C   0  0  0  0  0  0  0  0  0  0  0  0
   28.5000   15.8150   26.3660 C   0  0  0  0  0  0  0  0  0  0  0  0
   29.3120   14.9330   26.5990 O   0  0  0  0  0  0  0  0  0  0  0  0
   25.1770   14.6110   24.9460 H   0  0  0  0  0  0  0  0  0  0  0  0
   26.6320   12.0110   21.8800 H   0  0  0  0  0  0  0  0  0  0  0  0
   29.3060   14.6820   23.9080 H   0  0  0  0  0  0  0  0  0  0  0  0
   25.1420   10.8530   23.4580 H   0  0  0  0  0  0  0  0  0  0  0  0
   22.4050   11.3800   22.3070 H   0  0  0  0  0  0  0  0  0  0  0  0
   22.5830    9.3130   21.1700 H   0  0  0  0  0  0  0  0  0  0  0  0
   24.0850    8.8910   22.0280 H   0  0  0  0  0  0  0  0  0  0  0  0
   23.2940    9.4140   24.3880 H   0  0  0  0  0  0  0  0  0  0  0  0
   20.7170    9.7850   23.1530 H   0  0  0  0  0  0  0  0  0  0  0  0
   21.1440   11.6070   24.4780 H   0  0  0  0  0  0  0  0  0  0  0  0
   22.7070   11.6470   25.3290 H   0  0  0  0  0  0  0  0  0  0  0  0
   22.0590   10.0080   26.7240 H   0  0  0  0  0  0  0  0  0  0  0  0
   20.9030    9.4080   25.7130 H   0  0  0  0  0  0  0  0  0  0  0  0
   19.7900   10.2940   27.4900 H   0  0  0  0  0  0  0  0  0  0  0  0
   18.3510    9.7000   25.8800 H   0  0  0  0  0  0  0  0  0  0  0  0
   17.5680   11.8400   23.9580 H   0  0  0  0  0  0  0  0  0  0  0  0
   21.3860   12.8220   26.9860 H   0  0  0  0  0  0  0  0  0  0  0  0
   21.6310   11.6800   28.3290 H   0  0  0  0  0  0  0  0  0  0  0  0
   20.1190   12.6120   28.2180 H   0  0  0  0  0  0  0  0  0  0  0  0
   16.6990    8.9520   24.2860 H   0  0  0  0  0  0  0  0  0  0  0  0
   17.8700    9.5750   23.0990 H   0  0  0  0  0  0  0  0  0  0  0  0
   15.6230    9.1650   22.1270 H   0  0  0  0  0  0  0  0  0  0  0  0
   16.1390   10.8630   21.9980 H   0  0  0  0  0  0  0  0  0  0  0  0
   14.1910    9.6870   24.0110 H   0  0  0  0  0  0  0  0  0  0  0  0
   13.8150   10.8040   22.6770 H   0  0  0  0  0  0  0  0  0  0  0  0
   13.9540   11.9560   24.8800 H   0  0  0  0  0  0  0  0  0  0  0  0
   15.1610   12.5560   23.7180 H   0  0  0  0  0  0  0  0  0  0  0  0
   16.1700   12.2330   25.9410 H   0  0  0  0  0  0  0  0  0  0  0  0
   15.6620   10.5270   25.9330 H   0  0  0  0  0  0  0  0  0  0  0  0
   22.9860   12.0760   20.3240 H   0  0  0  0  0  0  0  0  0  0  0  0
   24.3900   13.1480   18.5990 H   0  0  0  0  0  0  0  0  0  0  0  0
   26.4570   12.0730   17.8180 H   0  0  0  0  0  0  0  0  0  0  0  0
   27.1610    9.9090   18.7750 H   0  0  0  0  0  0  0  0  0  0  0  0
   25.7860    8.8580   20.5290 H   0  0  0  0  0  0  0  0  0  0  0  0
   30.1630   13.2040   22.3290 H   0  0  0  0  0  0  0  0  0  0  0  0
   29.5570   12.2290   20.1370 H   0  0  0  0  0  0  0  0  0  0  0  0
   27.9240   11.9230   20.7770 H   0  0  0  0  0  0  0  0  0  0  0  0
   30.4770   10.5660   21.6910 H   0  0  0  0  0  0  0  0  0  0  0  0
   29.2290    9.8470   20.6450 H   0  0  0  0  0  0  0  0  0  0  0  0
   28.8450   10.2610   22.3330 H   0  0  0  0  0  0  0  0  0  0  0  0
   25.6060   16.6450   25.8240 H   0  0  0  0  0  0  0  0  0  0  0  0
   26.5390   17.3790   24.4980 H   0  0  0  0  0  0  0  0  0  0  0  0
   26.5590   18.1330   27.2630 H   0  0  0  0  0  0  0  0  0  0  0  0
   27.5890   18.7750   25.9610 H   0  0  0  0  0  0  0  0  0  0  0  0
   28.3260   17.0150   28.1330 H   0  0  0  0  0  0  0  0  0  0  0  0
   29.3680   17.7090   26.8680 H   0  0  0  0  0  0  0  0  0  0  0  0
  1  2  1  0  0  0  0
  1  6  2  0  0  0  0
  1 36  1  0  0  0  0
  2  3  2  0  0  0  0
  2 42  1  0  0  0  0
  3  4  1  0  0  0  0
  3  7  1  0  0  0  0
  4  5  2  0  0  0  0
  4 43  1  0  0  0  0
  5  6  1  0  0  0  0
  5 33  1  0  0  0  0
  6 44  1  0  0  0  0
  7  8  1  0  0  0  0
  7  9  2  0  0  0  0
  8 10  1  0  0  0  0
  8 45  1  0  0  0  0
 10 11  1  0  0  0  0
 10 12  1  0  0  0  0
 10 46  1  0  0  0  0
 11 14  1  0  0  0  0
 11 47  1  0  0  0  0
 11 48  1  0  0  0  0
 12 13  1  0  0  0  0
 12 15  1  0  0  0  0
 12 49  1  0  0  0  0
 13 50  1  0  0  0  0
 14 28  1  0  0  0  0
 14 32  2  0  0  0  0
 15 16  1  0  0  0  0
 15 51  1  0  0  0  0
 15 52  1  0  0  0  0
 16 17  1  0  0  0  0
 16 53  1  0  0  0  0
 16 54  1  0  0  0  0
 17 18  1  0  0  0  0
 17 22  1  0  0  0  0
 17 55  1  0  0  0  0
 18 19  1  0  0  0  0
 18 20  2  0  0  0  0
 19 21  1  0  0  0  0
 19 56  1  0  0  0  0
 21 23  1  0  0  0  0
 21 27  1  0  0  0  0
 21 57  1  0  0  0  0
 22 58  1  0  0  0  0
 22 59  1  0  0  0  0
 22 60  1  0  0  0  0
 23 24  1  0  0  0  0
 23 61  1  0  0  0  0
 23 62  1  0  0  0  0
 24 25  1  0  0  0  0
 24 63  1  0  0  0  0
 24 64  1  0  0  0  0
 25 26  1  0  0  0  0
 25 65  1  0  0  0  0
 25 66  1  0  0  0  0
 26 27  1  0  0  0  0
 26 67  1  0  0  0  0
 26 68  1  0  0  0  0
 27 69  1  0  0  0  0
 27 70  1  0  0  0  0
 28 29  2  0  0  0  0
 28 71  1  0  0  0  0
 29 30  1  0  0  0  0
 29 72  1  0  0  0  0
 30 31  2  0  0  0  0
 30 73  1  0  0  0  0
 31 32  1  0  0  0  0
 31 74  1  0  0  0  0
 32 75  1  0  0  0  0
 33 34  1  0  0  0  0
 33 76  1  0  0  0  0
 34 35  1  0  0  0  0
 34 77  1  0  0  0  0
 34 78  1  0  0  0  0
 35 79  1  0  0  0  0
 35 80  1  0  0  0  0
 35 81  1  0  0  0  0
 36 37  1  0  0  0  0
 36 40  1  0  0  0  0
 37 38  1  0  0  0  0
 37 82  1  0  0  0  0
 37 83  1  0  0  0  0
 38 39  1  0  0  0  0
 38 84  1  0  0  0  0
 38 85  1  0  0  0  0
 39 40  1  0  0  0  0
 39 86  1  0  0  0  0
 39 87  1  0  0  0  0
 40 41  2  0  0  0  0
M  CHG  1  16   1
M  END
>  <PARENT_CMPD_ID>
2XFJ

>  <STANDARD_TYPE>
IC50

>  <RELATION>
=

>  <STANDARD_VALUE>
0.013

>  <STANDARD_UNITS>
uM

>  <COMPOUND_KEY>
40

>  <PUBMED_ID>
20579874

>  <JOURNAL>
Bioorg.Med.Chem.Lett.

>  <YEAR>
2010

>  <VOLUME>
20

>  <FIRST_PAGE>
4639

>  <Company>
GSK

>  <Resolution>
1.8

>  <idx>
39

>  <Model>
Train

>  <target>
7.8860564

>  <des_pred_mlr>
6.7950702

>  <RF_Canvas>
7.5124345

>  <DNN_Canvas>
7.1960168

>  <pred_CoMFA>
7.3073001

>  <pred_COMSIA>
7.4383001

>  <pred_abm5>
7.3030105

>  <pred_ff8>
7.3604326

>  <pred_gau6>
7.4174614

>  <CID>
BACE_39

>  <active>
1

>  <des_class_bayes>
1

>  <maacs_class_bayes>
0

>  <radial_class_bayes>
1

>  <dend_class_bayes>
1

>  <molprint_class_bayes>
1

>  <RF_canvas>
1

>  <DNN_canvas>
1

$$$$
4J1K_3980
  MOE2015           3D

 45 47  0  0  1  0  0  0  0  0999 V2000
   22.2920   12.0790   23.1830 C   0  0  3  0  0  0  0  0  0  0  0  0
   21.3040   11.5730   22.1380 C   0  0  3  0  0  0  0  0  0  0  0  0
   22.4520   11.0330   24.1550 O   0  0  0  0  0  0  0  0  0  0  0  0
   22.4380    9.7720   23.8030 C   0  0  0  0  0  0  0  0  0  0  0  0
   22.1880    9.3180   22.6000 N   0  0  0  0  0  0  0  0  0  0  0  0
   21.8440   10.2680   21.5360 C   0  0  3  0  0  0  0  0  0  0  0  0
   23.0440   10.6390   20.7110 C   0  0  0  0  0  0  0  0  0  0  0  0
   24.2990   10.2790   21.1060 C   0  0  0  0  0  0  0  0  0  0  0  0
   25.4030   10.6360   20.2990 C   0  0  0  0  0  0  0  0  0  0  0  0
   25.2890   11.4270   19.1390 C   0  0  0  0  0  0  0  0  0  0  0  0
   24.0110   11.7930   18.7450 C   0  0  0  0  0  0  0  0  0  0  0  0
   22.9130   11.3630   19.5190 C   0  0  0  0  0  0  0  0  0  0  0  0
   21.7000   11.7610   19.1350 F   0  0  0  0  0  0  0  0  0  0  0  0
   22.7600    8.9780   24.8560 N   0  0  0  0  0  0  0  0  0  0  0  0
   20.6960    9.6850   20.7090 C   0  0  0  0  0  0  0  0  0  0  0  0
   26.6510   10.2530   20.7740 N   0  0  0  0  0  0  0  0  0  0  0  0
   27.8640   10.5460   20.2800 C   0  0  0  0  0  0  0  0  0  0  0  0
   29.0050   10.1020   21.0890 C   0  0  0  0  0  0  0  0  0  0  0  0
   28.0150   11.2130   19.2730 O   0  0  0  0  0  0  0  0  0  0  0  0
   28.8030    9.1810   22.0470 N   0  0  0  0  0  0  0  0  0  0  0  0
   29.7410    8.7300   22.8500 C   0  0  0  0  0  0  0  0  0  0  0  0
   31.0070    9.3020   22.7660 C   0  0  0  0  0  0  0  0  0  0  0  0
   31.2610   10.3240   21.7930 C   0  0  0  0  0  0  0  0  0  0  0  0
   30.2490   10.7470   20.9190 C   0  0  0  0  0  0  0  0  0  0  0  0
   32.0590    8.8370   23.6400 C   0  0  0  0  0  0  0  0  0  0  0  0
   32.8920    8.4590   24.3410 N   0  0  0  0  0  0  0  0  0  0  0  0
   21.6400   13.2640   23.9290 C   0  0  0  0  0  0  0  0  0  0  0  0
   20.5060   12.9210   24.6340 F   0  0  0  0  0  0  0  0  0  0  0  0
   22.6020   13.8420   24.7410 F   0  0  0  0  0  0  0  0  0  0  0  0
   21.2070   14.1820   23.0450 F   0  0  0  0  0  0  0  0  0  0  0  0
   20.1030   11.3270   22.8020 F   0  0  0  0  0  0  0  0  0  0  0  0
   23.2340   12.3670   22.7170 H   0  0  0  0  0  0  0  0  0  0  0  0
   21.1600   12.2970   21.3360 H   0  0  0  0  0  0  0  0  0  0  0  0
   24.4470    9.7280   22.0230 H   0  0  0  0  0  0  0  0  0  0  0  0
   26.1600   11.7350   18.5800 H   0  0  0  0  0  0  0  0  0  0  0  0
   23.8590   12.3960   17.8620 H   0  0  0  0  0  0  0  0  0  0  0  0
   22.8180    7.9770   24.7350 H   0  0  0  0  0  0  0  0  0  0  0  0
   22.9420    9.3880   25.7610 H   0  0  0  0  0  0  0  0  0  0  0  0
   19.8620    9.4390   21.3670 H   0  0  0  0  0  0  0  0  0  0  0  0
   21.0360    8.7830   20.2010 H   0  0  0  0  0  0  0  0  0  0  0  0
   20.3720   10.4180   19.9700 H   0  0  0  0  0  0  0  0  0  0  0  0
   26.6450    9.6760   21.6030 H   0  0  0  0  0  0  0  0  0  0  0  0
   29.5350    7.9380   23.5550 H   0  0  0  0  0  0  0  0  0  0  0  0
   32.2420   10.7730   21.7330 H   0  0  0  0  0  0  0  0  0  0  0  0
   30.4100   11.5100   20.1710 H   0  0  0  0  0  0  0  0  0  0  0  0
  1  2  1  0  0  0  0
  1  3  1  0  0  0  0
  1 27  1  0  0  0  0
  1 32  1  0  0  0  0
  2  6  1  0  0  0  0
  2 31  1  0  0  0  0
  2 33  1  0  0  0  0
  3  4  1  0  0  0  0
  4  5  2  0  0  0  0
  4 14  1  0  0  0  0
  5  6  1  0  0  0  0
  6  7  1  0  0  0  0
  6 15  1  0  0  0  0
  7  8  1  0  0  0  0
  7 12  2  0  0  0  0
  8  9  2  0  0  0  0
  8 34  1  0  0  0  0
  9 10  1  0  0  0  0
  9 16  1  0  0  0  0
 10 11  2  0  0  0  0
 10 35  1  0  0  0  0
 11 12  1  0  0  0  0
 11 36  1  0  0  0  0
 12 13  1  0  0  0  0
 14 37  1  0  0  0  0
 14 38  1  0  0  0  0
 15 39  1  0  0  0  0
 15 40  1  0  0  0  0
 15 41  1  0  0  0  0
 16 17  1  0  0  0  0
 16 42  1  0  0  0  0
 17 18  1  0  0  0  0
 17 19  2  0  0  0  0
 18 20  1  0  0  0  0
 18 24  2  0  0  0  0
 20 21  2  0  0  0  0
 21 22  1  0  0  0  0
 21 43  1  0  0  0  0
 22 23  2  0  0  0  0
 22 25  1  0  0  0  0
 23 24  1  0  0  0  0
 23 44  1  0  0  0  0
 24 45  1  0  0  0  0
 25 26  3  0  0  0  0
 27 28  1  0  0  0  0
 27 29  1  0  0  0  0
 27 30  1  0  0  0  0
M  END
>  <PARENT_CMPD_ID>
4J1K

>  <STANDARD_TYPE>
IC50

>  <RELATION>
=

>  <STANDARD_VALUE>
0.013

>  <STANDARD_UNITS>
uM

>  <COMPOUND_KEY>
111

>  <PUBMED_ID>
23590342

>  <JOURNAL>
J.Med.Chem.

>  <YEAR>
2013

>  <VOLUME>
56

>  <FIRST_PAGE>
3980

>  <Company>
Roche

>  <Resolution>
2.1800001

>  <idx>
40

>  <Model>
Train

>  <target>
7.8860564

>  <des_pred_mlr>
6.8828402

>  <RF_Canvas>
7.7455955

>  <DNN_Canvas>
7.3949327

>  <pred_CoMFA>
7.4651999

>  <pred_COMSIA>
6.8283

>  <pred_abm5>
7.6493917

>  <pred_ff8>
7.1289511

>  <pred_gau6>
7.578506

>  <CID>
BACE_40

>  <active>
1

>  <des_class_bayes>
1

>  <maacs_class_bayes>
1

>  <radial_class_bayes>
1

>  <dend_class_bayes>
1

>  <molprint_class_bayes>
1

>  <RF_canvas>
1

>  <DNN_canvas>
1

$$$$
3CIB_3236
  MOE2015           3D

 91 93  0  0  1  0  0  0  0  0999 V2000
   26.8770   11.0630   19.0110 F   0  0  0  0  0  0  0  0  0  0  0  0
   22.9330   13.6060   18.3830 F   0  0  0  0  0  0  0  0  0  0  0  0
   26.8350   15.8220   24.3360 C   0  0  0  0  0  0  0  0  0  0  0  0
   26.9840   14.6000   23.6190 C   0  0  0  0  0  0  0  0  0  0  0  0
   25.8350   13.7910   23.3420 C   0  0  0  0  0  0  0  0  0  0  0  0
   24.5430   14.2100   23.7700 C   0  0  0  0  0  0  0  0  0  0  0  0
   24.3960   15.4400   24.4820 C   0  0  0  0  0  0  0  0  0  0  0  0
   25.5450   16.2410   24.7640 C   0  0  0  0  0  0  0  0  0  0  0  0
   28.3180   14.1580   23.2040 C   0  0  0  0  0  0  0  0  0  0  0  0
   28.5600   13.9350   21.8770 N   0  0  0  0  0  0  0  0  0  0  0  0
   29.1980   13.9770   24.0390 O   0  0  0  0  0  0  0  0  0  0  0  0
   29.9030   13.4780   21.5340 C   0  0  0  0  0  0  0  0  0  0  0  0
   27.5790   14.1300   20.8080 C   0  0  0  0  0  0  0  0  0  0  0  0
   28.0830   15.1920   19.8330 C   0  0  0  0  0  0  0  0  0  0  0  0
   28.6500   16.4150   20.5520 C   0  0  0  0  0  0  0  0  0  0  0  0
   29.8700   12.0000   21.0610 C   0  0  0  0  0  0  0  0  0  0  0  0
   29.0530   11.0690   21.9780 C   0  0  0  0  0  0  0  0  0  0  0  0
   25.3970   17.5100   25.5000 C   0  0  0  0  0  0  0  0  0  0  0  0
   23.3650   13.3900   23.4710 C   0  0  0  0  0  0  0  0  0  0  0  0
   22.2430   13.8620   23.3370 O   0  0  0  0  0  0  0  0  0  0  0  0
   23.6150   12.0630   23.3530 N   0  0  0  0  0  0  0  0  0  0  0  0
   22.5150   11.1380   23.0290 C   0  0  3  0  0  0  0  0  0  0  0  0
   21.9920   10.3520   24.2530 C   0  0  3  0  0  0  0  0  0  0  0  0
   21.0690    9.3480   23.8060 O   0  0  0  0  0  0  0  0  0  0  0  0
   22.9830   10.1630   21.9310 C   0  0  0  0  0  0  0  0  0  0  0  0
   23.6570   10.9200   20.8030 C   0  0  0  0  0  0  0  0  0  0  0  0
   25.0000   10.6140   20.4360 C   0  0  0  0  0  0  0  0  0  0  0  0
   25.6260   11.3310   19.3690 C   0  0  0  0  0  0  0  0  0  0  0  0
   24.9180   12.3460   18.6760 C   0  0  0  0  0  0  0  0  0  0  0  0
   23.5850   12.6500   19.0410 C   0  0  0  0  0  0  0  0  0  0  0  0
   22.9490   11.9440   20.0990 C   0  0  0  0  0  0  0  0  0  0  0  0
   21.2670   11.2300   25.2800 C   0  0  3  0  0  0  0  0  0  0  0  0
   19.9660   11.8280   24.7070 C   0  0  0  0  0  0  0  0  0  0  0  0
   19.1420   12.5350   25.7860 C   0  0  3  0  0  0  0  0  0  0  0  0
   19.0100   11.6740   27.0440 C   0  0  0  0  0  0  0  0  0  0  0  0
   20.3520   11.1660   27.5370 C   0  0  0  0  0  0  0  0  0  0  0  0
   20.9750   10.3820   26.4580 N   0  3  0  0  0  0  0  0  0  0  0  0
   17.7880   13.0620   25.2510 C   0  0  0  0  0  0  0  0  0  0  0  0
   16.8210   11.9220   24.9900 C   0  0  0  0  0  0  0  0  0  0  0  0
   15.9210   11.5020   26.0150 C   0  0  0  0  0  0  0  0  0  0  0  0
   15.0090   10.4300   25.7730 C   0  0  0  0  0  0  0  0  0  0  0  0
   14.9990    9.7800   24.5060 C   0  0  0  0  0  0  0  0  0  0  0  0
   15.8980   10.2020   23.4840 C   0  0  0  0  0  0  0  0  0  0  0  0
   27.7010   16.4300   24.5540 H   0  0  0  0  0  0  0  0  0  0  0  0
   25.9490   12.8600   22.8070 H   0  0  0  0  0  0  0  0  0  0  0  0
   23.4180   15.7640   24.8060 H   0  0  0  0  0  0  0  0  0  0  0  0
   30.5450   13.5600   22.4110 H   0  0  0  0  0  0  0  0  0  0  0  0
   30.3010   14.1020   20.7340 H   0  0  0  0  0  0  0  0  0  0  0  0
   26.6320   14.4550   21.2400 H   0  0  0  0  0  0  0  0  0  0  0  0
   27.4320   13.1900   20.2760 H   0  0  0  0  0  0  0  0  0  0  0  0
   27.2540   15.5100   19.2010 H   0  0  0  0  0  0  0  0  0  0  0  0
   28.8660   14.7550   19.2130 H   0  0  0  0  0  0  0  0  0  0  0  0
   27.8760   16.8610   21.1760 H   0  0  0  0  0  0  0  0  0  0  0  0
   28.9880   17.1450   19.8160 H   0  0  0  0  0  0  0  0  0  0  0  0
   29.4900   16.1120   21.1770 H   0  0  0  0  0  0  0  0  0  0  0  0
   30.8940   11.6300   21.0210 H   0  0  0  0  0  0  0  0  0  0  0  0
   29.4330   11.9690   20.0630 H   0  0  0  0  0  0  0  0  0  0  0  0
   29.4750   11.0870   22.9830 H   0  0  0  0  0  0  0  0  0  0  0  0
   29.0880   10.0520   21.5870 H   0  0  0  0  0  0  0  0  0  0  0  0
   28.0180   11.4100   22.0130 H   0  0  0  0  0  0  0  0  0  0  0  0
   26.3750   17.9770   25.6190 H   0  0  0  0  0  0  0  0  0  0  0  0
   24.9670   17.3130   26.4820 H   0  0  0  0  0  0  0  0  0  0  0  0
   24.7400   18.1790   24.9430 H   0  0  0  0  0  0  0  0  0  0  0  0
   24.5520   11.7100   23.4870 H   0  0  0  0  0  0  0  0  0  0  0  0
   21.6780   11.7410   22.6770 H   0  0  0  0  0  0  0  0  0  0  0  0
   22.8670    9.9230   24.7410 H   0  0  0  0  0  0  0  0  0  0  0  0
   20.3300    9.7980   23.3900 H   0  0  0  0  0  0  0  0  0  0  0  0
   22.1210    9.6250   21.5370 H   0  0  0  0  0  0  0  0  0  0  0  0
   23.6900    9.4530   22.3590 H   0  0  0  0  0  0  0  0  0  0  0  0
   25.5430    9.8430   20.9620 H   0  0  0  0  0  0  0  0  0  0  0  0
   25.3950   12.8860   17.8710 H   0  0  0  0  0  0  0  0  0  0  0  0
   21.9310   12.1810   20.3710 H   0  0  0  0  0  0  0  0  0  0  0  0
   21.9000   12.0740   25.5540 H   0  0  0  0  0  0  0  0  0  0  0  0
   19.3680   11.0250   24.2760 H   0  0  0  0  0  0  0  0  0  0  0  0
   20.2210   12.5480   23.9290 H   0  0  0  0  0  0  0  0  0  0  0  0
   19.6930   13.4270   26.0840 H   0  0  0  0  0  0  0  0  0  0  0  0
   18.3730   10.8190   26.8180 H   0  0  0  0  0  0  0  0  0  0  0  0
   18.5510   12.2720   27.8310 H   0  0  0  0  0  0  0  0  0  0  0  0
   20.2080   10.5360   28.4140 H   0  0  0  0  0  0  0  0  0  0  0  0
   20.9920   12.0090   27.7970 H   0  0  0  0  0  0  0  0  0  0  0  0
   21.8380    9.9820   26.7980 H   0  0  0  0  0  0  0  0  0  0  0  0
   20.3450    9.6420   26.1830 H   0  0  0  0  0  0  0  0  0  0  0  0
   17.9600   13.6030   24.3200 H   0  0  0  0  0  0  0  0  0  0  0  0
   17.3520   13.7360   25.9880 H   0  0  0  0  0  0  0  0  0  0  0  0
   16.8140   11.4290   24.0290 H   0  0  0  0  0  0  0  0  0  0  0  0
   15.9300   11.9960   26.9750 H   0  0  0  0  0  0  0  0  0  0  0  0
   14.3280   10.1130   26.5490 H   0  0  0  0  0  0  0  0  0  0  0  0
   14.3110    8.9680   24.3200 H   0  0  0  0  0  0  0  0  0  0  0  0
   15.7460    9.5930   22.5930 H   0  0  0  0  0  0  0  0  0  0  0  0
   16.9240   10.0860   23.8320 H   0  0  0  0  0  0  0  0  0  0  0  0
   15.7110   11.2490   23.2450 H   0  0  0  0  0  0  0  0  0  0  0  0
  1 28  1  0  0  0  0
  2 30  1  0  0  0  0
  3  4  1  0  0  0  0
  3  8  2  0  0  0  0
  3 44  1  0  0  0  0
  4  5  2  0  0  0  0
  4  9  1  0  0  0  0
  5  6  1  0  0  0  0
  5 45  1  0  0  0  0
  6  7  2  0  0  0  0
  6 19  1  0  0  0  0
  7  8  1  0  0  0  0
  7 46  1  0  0  0  0
  8 18  1  0  0  0  0
  9 10  1  0  0  0  0
  9 11  2  0  0  0  0
 10 12  1  0  0  0  0
 10 13  1  0  0  0  0
 12 16  1  0  0  0  0
 12 47  1  0  0  0  0
 12 48  1  0  0  0  0
 13 14  1  0  0  0  0
 13 49  1  0  0  0  0
 13 50  1  0  0  0  0
 14 15  1  0  0  0  0
 14 51  1  0  0  0  0
 14 52  1  0  0  0  0
 15 53  1  0  0  0  0
 15 54  1  0  0  0  0
 15 55  1  0  0  0  0
 16 17  1  0  0  0  0
 16 56  1  0  0  0  0
 16 57  1  0  0  0  0
 17 58  1  0  0  0  0
 17 59  1  0  0  0  0
 17 60  1  0  0  0  0
 18 61  1  0  0  0  0
 18 62  1  0  0  0  0
 18 63  1  0  0  0  0
 19 20  2  0  0  0  0
 19 21  1  0  0  0  0
 21 22  1  0  0  0  0
 21 64  1  0  0  0  0
 22 23  1  0  0  0  0
 22 25  1  0  0  0  0
 22 65  1  0  0  0  0
 23 24  1  0  0  0  0
 23 32  1  0  0  0  0
 23 66  1  0  0  0  0
 24 67  1  0  0  0  0
 25 26  1  0  0  0  0
 25 68  1  0  0  0  0
 25 69  1  0  0  0  0
 26 27  1  0  0  0  0
 26 31  2  0  0  0  0
 27 28  2  0  0  0  0
 27 70  1  0  0  0  0
 28 29  1  0  0  0  0
 29 30  2  0  0  0  0
 29 71  1  0  0  0  0
 30 31  1  0  0  0  0
 31 72  1  0  0  0  0
 32 33  1  0  0  0  0
 32 37  1  0  0  0  0
 32 73  1  0  0  0  0
 33 34  1  0  0  0  0
 33 74  1  0  0  0  0
 33 75  1  0  0  0  0
 34 35  1  0  0  0  0
 34 38  1  0  0  0  0
 34 76  1  0  0  0  0
 35 36  1  0  0  0  0
 35 77  1  0  0  0  0
 35 78  1  0  0  0  0
 36 37  1  0  0  0  0
 36 79  1  0  0  0  0
 36 80  1  0  0  0  0
 37 81  1  0  0  0  0
 37 82  1  0  0  0  0
 38 39  1  0  0  0  0
 38 83  1  0  0  0  0
 38 84  1  0  0  0  0
 39 40  2  0  0  0  0
 39 85  1  0  0  0  0
 40 41  1  0  0  0  0
 40 86  1  0  0  0  0
 41 42  2  0  0  0  0
 41 87  1  0  0  0  0
 42 43  1  0  0  0  0
 42 88  1  0  0  0  0
 43 89  1  0  0  0  0
 43 90  1  0  0  0  0
 43 91  1  0  0  0  0
M  CHG  1  37   1
M  END
>  <PARENT_CMPD_ID>
3CIB

>  <STANDARD_TYPE>
IC50

>  <RELATION>
=

>  <STANDARD_VALUE>
0.014

>  <STANDARD_UNITS>
uM

>  <COMPOUND_KEY>
1b

>  <PUBMED_ID>
18468890

>  <JOURNAL>
Bioorg.Med.Chem.Lett.

>  <YEAR>
2008

>  <VOLUME>
18

>  <FIRST_PAGE>
3236

>  <Company>
Schering

>  <Resolution>
1.72

>  <idx>
41

>  <Model>
Train

>  <target>
7.8538718

>  <des_pred_mlr>
7.6796799

>  <RF_Canvas>
7.7619514

>  <DNN_Canvas>
7.5470929

>  <pred_CoMFA>
7.6568999

>  <pred_COMSIA>
8.0771999

>  <pred_abm5>
8.170723

>  <pred_ff8>
6.9988642

>  <pred_gau6>
8.0310946

>  <CID>
BACE_41

>  <active>
1

>  <des_class_bayes>
1

>  <maacs_class_bayes>
1

>  <radial_class_bayes>
1

>  <dend_class_bayes>
1

>  <molprint_class_bayes>
1

>  <RF_canvas>
1

>  <DNN_canvas>
1

$$$$
3OOZ_6597
  MOE2015           3D

 50 52  0  0  1  0  0  0  0  0999 V2000
   22.5770   11.8960   25.1440 C   0  0  0  0  0  0  0  0  0  0  0  0
   22.3790   12.9430   24.9160 H   0  0  0  0  0  0  0  0  0  0  0  0
   23.6100   11.7850   25.4740 H   0  0  0  0  0  0  0  0  0  0  0  0
   21.9050   11.5630   25.9350 H   0  0  0  0  0  0  0  0  0  0  0  0
   14.7950    8.4230   19.2890 F   0  0  0  0  0  0  0  0  0  0  0  0
   22.3590   11.0860   23.9450 N   0  0  0  0  0  0  0  0  0  0  0  0
   21.7410   12.8020   22.4890 O   0  0  0  0  0  0  0  0  0  0  0  0
   21.9450   11.6200   22.7490 C   0  0  0  0  0  0  0  0  0  0  0  0
   16.5470    7.7160   18.1960 F   0  0  0  0  0  0  0  0  0  0  0  0
   22.2360    9.2910   22.6150 N   0  0  0  0  0  0  0  0  0  0  0  0
   16.6960    9.6210   19.3390 O   0  0  0  0  0  0  0  0  0  0  0  0
   21.8510   10.4490   21.7530 C   0  0  3  0  0  0  0  0  0  0  0  0
   29.0410    8.6390   22.7310 F   0  0  0  0  0  0  0  0  0  0  0  0
   22.8660    8.9040   24.8210 N   0  0  0  0  0  0  0  0  0  0  0  0
   22.9420    7.9100   24.6570 H   0  0  0  0  0  0  0  0  0  0  0  0
   23.0630    9.2810   25.7370 H   0  0  0  0  0  0  0  0  0  0  0  0
   22.4970    9.7380   23.8040 C   0  0  0  0  0  0  0  0  0  0  0  0
   25.7070   11.5980   17.7440 F   0  0  0  0  0  0  0  0  0  0  0  0
   20.4520   10.2570   21.1250 C   0  0  0  0  0  0  0  0  0  0  0  0
   19.4590   11.2530   21.0710 C   0  0  0  0  0  0  0  0  0  0  0  0
   19.6520   12.2260   21.4990 H   0  0  0  0  0  0  0  0  0  0  0  0
   18.2210   10.9930   20.4660 C   0  0  0  0  0  0  0  0  0  0  0  0
   17.4700   11.7690   20.4350 H   0  0  0  0  0  0  0  0  0  0  0  0
   17.9450    9.7470   19.9040 C   0  0  0  0  0  0  0  0  0  0  0  0
   18.9230    8.7490   19.9550 C   0  0  0  0  0  0  0  0  0  0  0  0
   18.7250    7.7790   19.5230 H   0  0  0  0  0  0  0  0  0  0  0  0
   20.1600    9.0030   20.5650 C   0  0  0  0  0  0  0  0  0  0  0  0
   20.9020    8.2190   20.6050 H   0  0  0  0  0  0  0  0  0  0  0  0
   16.1360    8.3190   19.3410 C   0  0  0  0  0  0  0  0  0  0  0  0
   16.4360    7.7640   20.2300 H   0  0  0  0  0  0  0  0  0  0  0  0
   22.8790   10.7280   20.6530 C   0  0  0  0  0  0  0  0  0  0  0  0
   22.5060   11.2960   19.4110 C   0  0  0  0  0  0  0  0  0  0  0  0
   21.4650   11.5110   19.2190 H   0  0  0  0  0  0  0  0  0  0  0  0
   23.4580   11.5850   18.4280 C   0  0  0  0  0  0  0  0  0  0  0  0
   23.1590   12.0110   17.4820 H   0  0  0  0  0  0  0  0  0  0  0  0
   24.7970   11.3150   18.6900 C   0  0  0  0  0  0  0  0  0  0  0  0
   25.1990   10.7640   19.9190 C   0  0  0  0  0  0  0  0  0  0  0  0
   24.2500   10.4730   20.8980 C   0  0  0  0  0  0  0  0  0  0  0  0
   24.5610   10.0530   21.8430 H   0  0  0  0  0  0  0  0  0  0  0  0
   26.5730   10.4920   20.1690 C   0  0  0  0  0  0  0  0  0  0  0  0
   27.7340   10.2680   20.3550 C   0  0  0  0  0  0  0  0  0  0  0  0
   29.1550   10.0040   20.5990 C   0  0  0  0  0  0  0  0  0  0  0  0
   29.7340   10.3580   19.7460 H   0  0  0  0  0  0  0  0  0  0  0  0
   29.3020    8.9300   20.7170 H   0  0  0  0  0  0  0  0  0  0  0  0
   29.6430   10.7180   21.8650 C   0  0  0  0  0  0  0  0  0  0  0  0
   29.2100   11.7180   21.9030 H   0  0  0  0  0  0  0  0  0  0  0  0
   30.7300   10.7930   21.8380 H   0  0  0  0  0  0  0  0  0  0  0  0
   29.2250    9.9440   23.1070 C   0  0  0  0  0  0  0  0  0  0  0  0
   30.0050   10.0070   23.8660 H   0  0  0  0  0  0  0  0  0  0  0  0
   28.2960   10.3520   23.5060 H   0  0  0  0  0  0  0  0  0  0  0  0
  1  2  1  0  0  0  0
  1  3  1  0  0  0  0
  1  4  1  0  0  0  0
  1  6  1  0  0  0  0
  5 29  1  0  0  0  0
  6  8  1  0  0  0  0
  6 17  1  0  0  0  0
  7  8  2  0  0  0  0
  8 12  1  0  0  0  0
  9 29  1  0  0  0  0
 10 12  1  0  0  0  0
 10 17  2  0  0  0  0
 11 24  1  0  0  0  0
 11 29  1  0  0  0  0
 12 19  1  0  0  0  0
 12 31  1  0  0  0  0
 13 48  1  0  0  0  0
 14 15  1  0  0  0  0
 14 16  1  0  0  0  0
 14 17  1  0  0  0  0
 18 36  1  0  0  0  0
 19 20  1  0  0  0  0
 19 27  2  0  0  0  0
 20 21  1  0  0  0  0
 20 22  2  0  0  0  0
 22 23  1  0  0  0  0
 22 24  1  0  0  0  0
 24 25  2  0  0  0  0
 25 26  1  0  0  0  0
 25 27  1  0  0  0  0
 27 28  1  0  0  0  0
 29 30  1  0  0  0  0
 31 32  1  0  0  0  0
 31 38  2  0  0  0  0
 32 33  1  0  0  0  0
 32 34  2  0  0  0  0
 34 35  1  0  0  0  0
 34 36  1  0  0  0  0
 36 37  2  0  0  0  0
 37 38  1  0  0  0  0
 37 40  1  0  0  0  0
 38 39  1  0  0  0  0
 40 41  3  0  0  0  0
 41 42  1  0  0  0  0
 42 43  1  0  0  0  0
 42 44  1  0  0  0  0
 42 45  1  0  0  0  0
 45 46  1  0  0  0  0
 45 47  1  0  0  0  0
 45 48  1  0  0  0  0
 48 49  1  0  0  0  0
 48 50  1  0  0  0  0
M  END
>  <PARENT_CMPD_ID>
3OOZ

>  <STANDARD_TYPE>
IC50

>  <RELATION>
=

>  <STANDARD_VALUE>
0.014

>  <STANDARD_UNITS>
uM

>  <COMPOUND_KEY>
102

>  <PUBMED_ID>
20880704

>  <JOURNAL>
Bioorg.Med.Chem.Lett.

>  <YEAR>
2010

>  <VOLUME>
20

>  <FIRST_PAGE>
6597

>  <Company>
Pfizer

>  <Resolution>
1.8

>  <idx>
42

>  <Model>
Train

>  <target>
7.8538718

>  <des_pred_mlr>
6.6935601

>  <RF_Canvas>
7.6585851

>  <DNN_Canvas>
7.5306163

>  <pred_CoMFA>
7.4333

>  <pred_COMSIA>
6.7212

>  <pred_abm5>
7.4957433

>  <pred_ff8>
6.6274486

>  <pred_gau6>
7.4640818

>  <CID>
BACE_42

>  <active>
1

>  <des_class_bayes>
1

>  <maacs_class_bayes>
1

>  <radial_class_bayes>
1

>  <dend_class_bayes>
1

>  <molprint_class_bayes>
1

>  <RF_canvas>
1

>  <DNN_canvas>
1

$$$$
2B8L_641
  MOE2015           3D

 80 83  0  0  1  0  0  0  0  0999 V2000
   20.8360   12.0780   28.3310 C   0  0  0  0  0  0  0  0  0  0  0  0
   20.1580   11.5340   27.1270 C   0  0  0  0  0  0  0  0  0  0  0  0
   19.7220   11.0770   28.4460 C   0  0  0  0  0  0  0  0  0  0  0  0
   20.9610   10.5120   26.4350 N   0  3  0  0  0  0  0  0  0  0  0  0
   21.5990   11.1940   25.2870 C   0  0  0  0  0  0  0  0  0  0  0  0
   22.2260   10.1840   24.2940 C   0  0  3  0  0  0  0  0  0  0  0  0
   22.7140   10.9400   23.0800 C   0  0  3  0  0  0  0  0  0  0  0  0
   23.9290   11.6480   23.4940 N   0  0  0  0  0  0  0  0  0  0  0  0
   23.9730   13.0000   23.5990 C   0  0  0  0  0  0  0  0  0  0  0  0
   22.9670   13.7080   23.6030 O   0  0  0  0  0  0  0  0  0  0  0  0
   21.1220    9.3510   23.9500 O   0  0  0  0  0  0  0  0  0  0  0  0
   22.9700   10.0410   21.8350 C   0  0  0  0  0  0  0  0  0  0  0  0
   25.3130   13.5730   23.7200 C   0  0  0  0  0  0  0  0  0  0  0  0
   26.3860   13.1160   22.9350 C   0  0  0  0  0  0  0  0  0  0  0  0
   27.6790   13.6630   23.0530 C   0  0  0  0  0  0  0  0  0  0  0  0
   27.8700   14.7130   23.9790 C   0  0  0  0  0  0  0  0  0  0  0  0
   26.8070   15.1960   24.8160 C   0  0  0  0  0  0  0  0  0  0  0  0
   25.5220   14.6110   24.6620 C   0  0  0  0  0  0  0  0  0  0  0  0
   28.8040   13.1240   22.2500 C   0  0  0  0  0  0  0  0  0  0  0  0
   26.9800   16.1270   25.8580 N   0  0  0  0  0  0  0  0  0  0  0  0
   29.7040   13.8110   21.7960 O   0  0  0  0  0  0  0  0  0  0  0  0
   25.9320   17.1430   26.1180 C   0  0  0  0  0  0  0  0  0  0  0  0
   28.3840   16.3140   26.6790 S   0  0  0  0  0  0  0  0  0  0  0  0
   29.3990   17.4620   25.7320 C   0  0  0  0  0  0  0  0  0  0  0  0
   28.0750   16.9150   27.9560 O   0  0  0  0  0  0  0  0  0  0  0  0
   29.0840   15.0740   26.6800 O   0  0  0  0  0  0  0  0  0  0  0  0
   23.5700   11.9520   20.1920 C   0  0  0  0  0  0  0  0  0  0  0  0
   24.3590   12.4480   19.1260 C   0  0  0  0  0  0  0  0  0  0  0  0
   25.4100   11.6660   18.6230 C   0  0  0  0  0  0  0  0  0  0  0  0
   25.7060   10.4090   19.1570 C   0  0  0  0  0  0  0  0  0  0  0  0
   24.9110    9.9090   20.2360 C   0  0  0  0  0  0  0  0  0  0  0  0
   23.8380   10.6680   20.7470 C   0  0  0  0  0  0  0  0  0  0  0  0
   28.7780   11.7770   22.0500 N   0  0  0  0  0  0  0  0  0  0  0  0
   29.7760   10.9680   21.3540 C   0  0  3  0  0  0  0  0  0  0  0  0
   29.0570   10.0830   20.2730 C   0  0  0  0  0  0  0  0  0  0  0  0
   30.5940   10.1830   22.3200 C   0  0  0  0  0  0  0  0  0  0  0  0
   30.0270    9.2210   23.2060 C   0  0  0  0  0  0  0  0  0  0  0  0
   30.8490    8.4330   24.0250 C   0  0  0  0  0  0  0  0  0  0  0  0
   32.2620    8.6130   24.0210 C   0  0  0  0  0  0  0  0  0  0  0  0
   32.8040    9.6110   23.2030 C   0  0  0  0  0  0  0  0  0  0  0  0
   31.9880   10.3770   22.3580 C   0  0  0  0  0  0  0  0  0  0  0  0
   20.6760   13.1140   28.6300 H   0  0  0  0  0  0  0  0  0  0  0  0
   21.8610   11.7870   28.5620 H   0  0  0  0  0  0  0  0  0  0  0  0
   19.6680   11.9800   26.2620 H   0  0  0  0  0  0  0  0  0  0  0  0
   18.7520   11.3840   28.8360 H   0  0  0  0  0  0  0  0  0  0  0  0
   19.9360   10.0580   28.7680 H   0  0  0  0  0  0  0  0  0  0  0  0
   20.3680    9.7620   26.1110 H   0  0  0  0  0  0  0  0  0  0  0  0
   21.6650   10.1400   27.0560 H   0  0  0  0  0  0  0  0  0  0  0  0
   22.3820   11.8550   25.6600 H   0  0  0  0  0  0  0  0  0  0  0  0
   20.8460   11.7830   24.7630 H   0  0  0  0  0  0  0  0  0  0  0  0
   23.0720    9.6230   24.6930 H   0  0  0  0  0  0  0  0  0  0  0  0
   21.9370   11.6290   22.7480 H   0  0  0  0  0  0  0  0  0  0  0  0
   24.7590   11.1130   23.7080 H   0  0  0  0  0  0  0  0  0  0  0  0
   20.4260    9.9180   23.6100 H   0  0  0  0  0  0  0  0  0  0  0  0
   22.0040    9.7930   21.3940 H   0  0  0  0  0  0  0  0  0  0  0  0
   23.4610    9.1280   22.1730 H   0  0  0  0  0  0  0  0  0  0  0  0
   26.2140   12.3240   22.2220 H   0  0  0  0  0  0  0  0  0  0  0  0
   28.8470   15.1670   24.0600 H   0  0  0  0  0  0  0  0  0  0  0  0
   24.6980   14.9600   25.2670 H   0  0  0  0  0  0  0  0  0  0  0  0
   25.0500   16.9160   25.5200 H   0  0  0  0  0  0  0  0  0  0  0  0
   26.3090   18.1300   25.8500 H   0  0  0  0  0  0  0  0  0  0  0  0
   25.6670   17.1300   27.1750 H   0  0  0  0  0  0  0  0  0  0  0  0
   28.9100   18.4350   25.6970 H   0  0  0  0  0  0  0  0  0  0  0  0
   29.5270   17.0830   24.7180 H   0  0  0  0  0  0  0  0  0  0  0  0
   30.3740   17.5620   26.2080 H   0  0  0  0  0  0  0  0  0  0  0  0
   22.7610   12.5500   20.5860 H   0  0  0  0  0  0  0  0  0  0  0  0
   24.1540   13.4200   18.7030 H   0  0  0  0  0  0  0  0  0  0  0  0
   26.0040   12.0440   17.8040 H   0  0  0  0  0  0  0  0  0  0  0  0
   26.5230    9.8240   18.7610 H   0  0  0  0  0  0  0  0  0  0  0  0
   25.1340    8.9420   20.6630 H   0  0  0  0  0  0  0  0  0  0  0  0
   27.9810   11.2830   22.4240 H   0  0  0  0  0  0  0  0  0  0  0  0
   30.4840   11.6110   20.8310 H   0  0  0  0  0  0  0  0  0  0  0  0
   28.3380    9.4250   20.7620 H   0  0  0  0  0  0  0  0  0  0  0  0
   29.7970    9.4830   19.7430 H   0  0  0  0  0  0  0  0  0  0  0  0
   28.5360   10.7270   19.5640 H   0  0  0  0  0  0  0  0  0  0  0  0
   28.9550    9.0980   23.2470 H   0  0  0  0  0  0  0  0  0  0  0  0
   30.4070    7.6830   24.6640 H   0  0  0  0  0  0  0  0  0  0  0  0
   32.9000    7.9940   24.6350 H   0  0  0  0  0  0  0  0  0  0  0  0
   33.8680    9.7940   23.2230 H   0  0  0  0  0  0  0  0  0  0  0  0
   32.4370   11.1290   21.7250 H   0  0  0  0  0  0  0  0  0  0  0  0
  1  2  1  0  0  0  0
  1  3  1  0  0  0  0
  1 42  1  0  0  0  0
  1 43  1  0  0  0  0
  2  3  1  0  0  0  0
  2  4  1  0  0  0  0
  2 44  1  0  0  0  0
  3 45  1  0  0  0  0
  3 46  1  0  0  0  0
  4  5  1  0  0  0  0
  4 47  1  0  0  0  0
  4 48  1  0  0  0  0
  5  6  1  0  0  0  0
  5 49  1  0  0  0  0
  5 50  1  0  0  0  0
  6  7  1  0  0  0  0
  6 11  1  0  0  0  0
  6 51  1  0  0  0  0
  7  8  1  0  0  0  0
  7 12  1  0  0  0  0
  7 52  1  0  0  0  0
  8  9  1  0  0  0  0
  8 53  1  0  0  0  0
  9 10  2  0  0  0  0
  9 13  1  0  0  0  0
 11 54  1  0  0  0  0
 12 32  1  0  0  0  0
 12 55  1  0  0  0  0
 12 56  1  0  0  0  0
 13 14  1  0  0  0  0
 13 18  2  0  0  0  0
 14 15  2  0  0  0  0
 14 57  1  0  0  0  0
 15 16  1  0  0  0  0
 15 19  1  0  0  0  0
 16 17  2  0  0  0  0
 16 58  1  0  0  0  0
 17 18  1  0  0  0  0
 17 20  1  0  0  0  0
 18 59  1  0  0  0  0
 19 21  2  0  0  0  0
 19 33  1  0  0  0  0
 20 22  1  0  0  0  0
 20 23  1  0  0  0  0
 22 60  1  0  0  0  0
 22 61  1  0  0  0  0
 22 62  1  0  0  0  0
 23 24  1  0  0  0  0
 23 25  2  0  0  0  0
 23 26  2  0  0  0  0
 24 63  1  0  0  0  0
 24 64  1  0  0  0  0
 24 65  1  0  0  0  0
 27 28  1  0  0  0  0
 27 32  2  0  0  0  0
 27 66  1  0  0  0  0
 28 29  2  0  0  0  0
 28 67  1  0  0  0  0
 29 30  1  0  0  0  0
 29 68  1  0  0  0  0
 30 31  2  0  0  0  0
 30 69  1  0  0  0  0
 31 32  1  0  0  0  0
 31 70  1  0  0  0  0
 33 34  1  0  0  0  0
 33 71  1  0  0  0  0
 34 35  1  0  0  0  0
 34 36  1  0  0  0  0
 34 72  1  0  0  0  0
 35 73  1  0  0  0  0
 35 74  1  0  0  0  0
 35 75  1  0  0  0  0
 36 37  1  0  0  0  0
 36 41  2  0  0  0  0
 37 38  2  0  0  0  0
 37 76  1  0  0  0  0
 38 39  1  0  0  0  0
 38 77  1  0  0  0  0
 39 40  2  0  0  0  0
 39 78  1  0  0  0  0
 40 41  1  0  0  0  0
 40 79  1  0  0  0  0
 41 80  1  0  0  0  0
M  CHG  1   4   1
M  END
>  <PARENT_CMPD_ID>
2B8L

>  <STANDARD_TYPE>
IC50

>  <RELATION>
=

>  <STANDARD_VALUE>
0.015

>  <STANDARD_UNITS>
uM

>  <COMPOUND_KEY>
1

>  <PUBMED_ID>
16263281

>  <JOURNAL>
Bioorg.Med.Chem.Lett.

>  <YEAR>
2006

>  <VOLUME>
16

>  <FIRST_PAGE>
641

>  <Company>
Merck

>  <Resolution>
1.7

>  <idx>
43

>  <Model>
Train

>  <target>
7.8239088

>  <des_pred_mlr>
7.2117701

>  <RF_Canvas>
7.7282715

>  <DNN_Canvas>
7.3537569

>  <pred_CoMFA>
7.0889001

>  <pred_COMSIA>
7.0152001

>  <pred_abm5>
7.3971906

>  <pred_ff8>
8.184844

>  <pred_gau6>
7.1908541

>  <CID>
BACE_43

>  <active>
1

>  <des_class_bayes>
1

>  <maacs_class_bayes>
1

>  <radial_class_bayes>
1

>  <dend_class_bayes>
1

>  <molprint_class_bayes>
1

>  <RF_canvas>
1

>  <DNN_canvas>
1

$$$$
2XFI_4639
  MOE2015           3D

 86 89  0  0  1  0  0  0  0  0999 V2000
   20.9260   12.3020   27.6030 C   0  0  0  0  0  0  0  0  0  0  0  0
   20.2640   11.1570   26.8570 C   0  0  3  0  0  0  0  0  0  0  0  0
   21.2670   10.3660   26.1000 N   0  3  0  0  0  0  0  0  0  0  0  0
   21.8970   11.1270   25.0050 C   0  0  0  0  0  0  0  0  0  0  0  0
   22.4530   10.1390   23.9780 C   0  0  3  0  0  0  0  0  0  0  0  0
   21.3320    9.3440   23.5740 O   0  0  0  0  0  0  0  0  0  0  0  0
   23.1060   10.8440   22.7960 C   0  0  3  0  0  0  0  0  0  0  0  0
   23.4280    9.8950   21.6440 C   0  0  0  0  0  0  0  0  0  0  0  0
   24.3110   10.5370   20.6000 C   0  0  0  0  0  0  0  0  0  0  0  0
   23.9700   11.7390   19.9960 C   0  0  0  0  0  0  0  0  0  0  0  0
   24.8050   12.3030   19.0450 C   0  0  0  0  0  0  0  0  0  0  0  0
   25.9840   11.6730   18.6870 C   0  0  0  0  0  0  0  0  0  0  0  0
   26.3250   10.4770   19.2830 C   0  0  0  0  0  0  0  0  0  0  0  0
   25.4930    9.9130   20.2330 C   0  0  0  0  0  0  0  0  0  0  0  0
   24.3240   11.5430   23.2230 N   0  0  0  0  0  0  0  0  0  0  0  0
   24.3340   12.9010   23.3860 C   0  0  0  0  0  0  0  0  0  0  0  0
   23.3260   13.6080   23.3880 O   0  0  0  0  0  0  0  0  0  0  0  0
   25.6870   13.4610   23.5640 C   0  0  0  0  0  0  0  0  0  0  0  0
   26.7520   12.9530   22.8410 C   0  0  0  0  0  0  0  0  0  0  0  0
   28.0260   13.4740   23.0230 C   0  0  0  0  0  0  0  0  0  0  0  0
   28.2310   14.5110   23.9240 C   0  0  0  0  0  0  0  0  0  0  0  0
   27.1480   15.0100   24.6360 C   0  0  0  0  0  0  0  0  0  0  0  0
   25.8780   14.4890   24.4640 C   0  0  0  0  0  0  0  0  0  0  0  0
   27.2970   16.0860   25.5750 N   0  0  0  0  0  0  0  0  0  0  0  0
   26.4820   17.2510   25.3990 C   0  0  0  0  0  0  0  0  0  0  0  0
   26.6630   18.0220   24.2710 C   0  0  0  0  0  0  0  0  0  0  0  0
   25.8640   19.1370   24.1070 C   0  0  0  0  0  0  0  0  0  0  0  0
   24.9250   19.4590   25.0620 C   0  0  0  0  0  0  0  0  0  0  0  0
   24.7560   18.6790   26.1830 C   0  0  0  0  0  0  0  0  0  0  0  0
   25.5390   17.5590   26.3600 C   0  0  0  0  0  0  0  0  0  0  0  0
   28.6320   16.2090   26.6040 S   0  0  0  0  0  0  0  0  0  0  0  0
   29.7320   17.2750   25.7120 C   0  0  0  0  0  0  0  0  0  0  0  0
   29.2570   14.9140   26.6820 O   0  0  0  0  0  0  0  0  0  0  0  0
   28.2360   16.9430   27.7840 O   0  0  0  0  0  0  0  0  0  0  0  0
   19.1940   11.6850   25.9180 C   0  0  0  0  0  0  0  0  0  0  0  0
   19.1500   12.8440   25.5090 O   0  0  0  0  0  0  0  0  0  0  0  0
   18.2590   10.7320   25.5800 N   0  0  0  0  0  0  0  0  0  0  0  0
   17.1780   11.0790   24.6520 C   0  0  0  0  0  0  0  0  0  0  0  0
   16.9820    9.9360   23.6870 C   0  0  0  0  0  0  0  0  0  0  0  0
   15.8540   10.1920   22.6900 C   0  0  0  0  0  0  0  0  0  0  0  0
   14.5580   10.4610   23.4320 C   0  0  0  0  0  0  0  0  0  0  0  0
   14.7700   11.6410   24.3720 C   0  0  0  0  0  0  0  0  0  0  0  0
   15.8730   11.3210   25.3830 C   0  0  0  0  0  0  0  0  0  0  0  0
   21.6900   11.9060   28.2720 H   0  0  0  0  0  0  0  0  0  0  0  0
   20.1760   12.8380   28.1850 H   0  0  0  0  0  0  0  0  0  0  0  0
   21.3860   12.9840   26.8880 H   0  0  0  0  0  0  0  0  0  0  0  0
   19.7950   10.5010   27.5910 H   0  0  0  0  0  0  0  0  0  0  0  0
   20.8080    9.5570   25.7070 H   0  0  0  0  0  0  0  0  0  0  0  0
   21.9890   10.0660   26.7400 H   0  0  0  0  0  0  0  0  0  0  0  0
   22.7070   11.7380   25.4020 H   0  0  0  0  0  0  0  0  0  0  0  0
   21.1550   11.7700   24.5310 H   0  0  0  0  0  0  0  0  0  0  0  0
   23.2470    9.5260   24.4060 H   0  0  0  0  0  0  0  0  0  0  0  0
   20.6720    9.9370   23.2080 H   0  0  0  0  0  0  0  0  0  0  0  0
   22.3790   11.5660   22.4250 H   0  0  0  0  0  0  0  0  0  0  0  0
   22.4950    9.5870   21.1720 H   0  0  0  0  0  0  0  0  0  0  0  0
   23.9390    9.0190   22.0440 H   0  0  0  0  0  0  0  0  0  0  0  0
   23.0510   12.2360   20.2680 H   0  0  0  0  0  0  0  0  0  0  0  0
   24.5340   13.2400   18.5800 H   0  0  0  0  0  0  0  0  0  0  0  0
   26.6330   12.1150   17.9460 H   0  0  0  0  0  0  0  0  0  0  0  0
   27.2430    9.9800   19.0070 H   0  0  0  0  0  0  0  0  0  0  0  0
   25.7670    8.9760   20.6940 H   0  0  0  0  0  0  0  0  0  0  0  0
   25.1660   11.0140   23.3990 H   0  0  0  0  0  0  0  0  0  0  0  0
   26.5920   12.1510   22.1350 H   0  0  0  0  0  0  0  0  0  0  0  0
   28.8580   13.0730   22.4640 H   0  0  0  0  0  0  0  0  0  0  0  0
   29.2190   14.9230   24.0690 H   0  0  0  0  0  0  0  0  0  0  0  0
   25.0450   14.8830   25.0280 H   0  0  0  0  0  0  0  0  0  0  0  0
   27.4090   17.7620   23.5350 H   0  0  0  0  0  0  0  0  0  0  0  0
   25.9760   19.7570   23.2290 H   0  0  0  0  0  0  0  0  0  0  0  0
   24.3120   20.3380   24.9290 H   0  0  0  0  0  0  0  0  0  0  0  0
   24.0130   18.9430   26.9210 H   0  0  0  0  0  0  0  0  0  0  0  0
   25.4180   16.9340   27.2330 H   0  0  0  0  0  0  0  0  0  0  0  0
   30.0680   16.7730   24.8040 H   0  0  0  0  0  0  0  0  0  0  0  0
   30.5940   17.5120   26.3360 H   0  0  0  0  0  0  0  0  0  0  0  0
   29.2110   18.1950   25.4470 H   0  0  0  0  0  0  0  0  0  0  0  0
   18.3170    9.8010   25.9680 H   0  0  0  0  0  0  0  0  0  0  0  0
   17.4570   11.9950   24.1300 H   0  0  0  0  0  0  0  0  0  0  0  0
   16.7470    9.0360   24.2560 H   0  0  0  0  0  0  0  0  0  0  0  0
   17.9090    9.7840   23.1330 H   0  0  0  0  0  0  0  0  0  0  0  0
   15.7300    9.3170   22.0520 H   0  0  0  0  0  0  0  0  0  0  0  0
   16.1040   11.0570   22.0750 H   0  0  0  0  0  0  0  0  0  0  0  0
   14.2750    9.5800   24.0080 H   0  0  0  0  0  0  0  0  0  0  0  0
   13.7690   10.6980   22.7180 H   0  0  0  0  0  0  0  0  0  0  0  0
   13.8420   11.8480   24.9050 H   0  0  0  0  0  0  0  0  0  0  0  0
   15.0580   12.5170   23.7910 H   0  0  0  0  0  0  0  0  0  0  0  0
   15.9910   12.1600   26.0680 H   0  0  0  0  0  0  0  0  0  0  0  0
   15.6010   10.4280   25.9460 H   0  0  0  0  0  0  0  0  0  0  0  0
  1  2  1  0  0  0  0
  1 44  1  0  0  0  0
  1 45  1  0  0  0  0
  1 46  1  0  0  0  0
  2  3  1  0  0  0  0
  2 35  1  0  0  0  0
  2 47  1  0  0  0  0
  3  4  1  0  0  0  0
  3 48  1  0  0  0  0
  3 49  1  0  0  0  0
  4  5  1  0  0  0  0
  4 50  1  0  0  0  0
  4 51  1  0  0  0  0
  5  6  1  0  0  0  0
  5  7  1  0  0  0  0
  5 52  1  0  0  0  0
  6 53  1  0  0  0  0
  7  8  1  0  0  0  0
  7 15  1  0  0  0  0
  7 54  1  0  0  0  0
  8  9  1  0  0  0  0
  8 55  1  0  0  0  0
  8 56  1  0  0  0  0
  9 10  1  0  0  0  0
  9 14  2  0  0  0  0
 10 11  2  0  0  0  0
 10 57  1  0  0  0  0
 11 12  1  0  0  0  0
 11 58  1  0  0  0  0
 12 13  2  0  0  0  0
 12 59  1  0  0  0  0
 13 14  1  0  0  0  0
 13 60  1  0  0  0  0
 14 61  1  0  0  0  0
 15 16  1  0  0  0  0
 15 62  1  0  0  0  0
 16 17  2  0  0  0  0
 16 18  1  0  0  0  0
 18 19  1  0  0  0  0
 18 23  2  0  0  0  0
 19 20  2  0  0  0  0
 19 63  1  0  0  0  0
 20 21  1  0  0  0  0
 20 64  1  0  0  0  0
 21 22  2  0  0  0  0
 21 65  1  0  0  0  0
 22 23  1  0  0  0  0
 22 24  1  0  0  0  0
 23 66  1  0  0  0  0
 24 25  1  0  0  0  0
 24 31  1  0  0  0  0
 25 26  1  0  0  0  0
 25 30  2  0  0  0  0
 26 27  2  0  0  0  0
 26 67  1  0  0  0  0
 27 28  1  0  0  0  0
 27 68  1  0  0  0  0
 28 29  2  0  0  0  0
 28 69  1  0  0  0  0
 29 30  1  0  0  0  0
 29 70  1  0  0  0  0
 30 71  1  0  0  0  0
 31 32  1  0  0  0  0
 31 33  2  0  0  0  0
 31 34  2  0  0  0  0
 32 72  1  0  0  0  0
 32 73  1  0  0  0  0
 32 74  1  0  0  0  0
 35 36  2  0  0  0  0
 35 37  1  0  0  0  0
 37 38  1  0  0  0  0
 37 75  1  0  0  0  0
 38 39  1  0  0  0  0
 38 43  1  0  0  0  0
 38 76  1  0  0  0  0
 39 40  1  0  0  0  0
 39 77  1  0  0  0  0
 39 78  1  0  0  0  0
 40 41  1  0  0  0  0
 40 79  1  0  0  0  0
 40 80  1  0  0  0  0
 41 42  1  0  0  0  0
 41 81  1  0  0  0  0
 41 82  1  0  0  0  0
 42 43  1  0  0  0  0
 42 83  1  0  0  0  0
 42 84  1  0  0  0  0
 43 85  1  0  0  0  0
 43 86  1  0  0  0  0
M  CHG  1   3   1
M  END
>  <PARENT_CMPD_ID>
2XFI

>  <STANDARD_TYPE>
IC50

>  <RELATION>
=

>  <STANDARD_VALUE>
0.015

>  <STANDARD_UNITS>
uM

>  <COMPOUND_KEY>
4

>  <PUBMED_ID>
20579874

>  <JOURNAL>
Bioorg.Med.Chem.Lett.

>  <YEAR>
2010

>  <VOLUME>
20

>  <FIRST_PAGE>
4639

>  <Company>
GSK

>  <Resolution>
1.73

>  <idx>
44

>  <Model>
Train

>  <target>
7.8239088

>  <des_pred_mlr>
7.2983098

>  <RF_Canvas>
7.7293277

>  <DNN_Canvas>
7.5224533

>  <pred_CoMFA>
7.7188001

>  <pred_COMSIA>
8.1190004

>  <pred_abm5>
7.7564406

>  <pred_ff8>
8.1077042

>  <pred_gau6>
7.8669333

>  <CID>
BACE_44

>  <active>
1

>  <des_class_bayes>
1

>  <maacs_class_bayes>
1

>  <radial_class_bayes>
1

>  <dend_class_bayes>
1

>  <molprint_class_bayes>
1

>  <RF_canvas>
1

>  <DNN_canvas>
1

$$$$
4DH6_9009
  MOE2015           3D

 84 88  0  0  1  0  0  0  0  0999 V2000
   21.2150   13.8440   29.1420 C   0  0  0  0  0  0  0  0  0  0  0  0
   22.2770   13.6150   29.2310 H   0  0  0  0  0  0  0  0  0  0  0  0
   21.0890   14.9050   28.9250 H   0  0  0  0  0  0  0  0  0  0  0  0
   20.3650   13.3400   30.3180 C   0  0  0  0  0  0  0  0  0  0  0  0
   19.7990   14.1220   30.8240 H   0  0  0  0  0  0  0  0  0  0  0  0
   20.9230   12.7610   31.0540 H   0  0  0  0  0  0  0  0  0  0  0  0
   19.5310   12.4890   29.3560 C   0  0  0  0  0  0  0  0  0  0  0  0
   18.4970   12.8190   29.2510 H   0  0  0  0  0  0  0  0  0  0  0  0
   19.5520   11.4210   29.5730 H   0  0  0  0  0  0  0  0  0  0  0  0
   20.4510   12.9140   28.1890 C   0  0  0  0  0  0  0  0  0  0  0  0
   21.3460   11.7730   27.6710 C   0  0  0  0  0  0  0  0  0  0  0  0
   21.7530   11.2240   28.5200 H   0  0  0  0  0  0  0  0  0  0  0  0
   22.1630   12.1960   27.0860 H   0  0  0  0  0  0  0  0  0  0  0  0
   19.7960   13.6480   27.1350 O   0  0  0  0  0  0  0  0  0  0  0  0
   19.1560   12.9030   26.1780 C   0  0  0  0  0  0  0  0  0  0  0  0
   18.2170   13.5250   25.4330 N   0  0  0  0  0  0  0  0  0  0  0  0
   17.5420   12.8990   24.4770 C   0  0  0  0  0  0  0  0  0  0  0  0
   16.8000   13.4350   23.9040 H   0  0  0  0  0  0  0  0  0  0  0  0
   17.7860   11.5520   24.2080 C   0  0  0  0  0  0  0  0  0  0  0  0
   16.9980   10.8290   23.1020 C   0  0  0  0  0  0  0  0  0  0  0  0
   17.5570    9.9420   22.8040 H   0  0  0  0  0  0  0  0  0  0  0  0
   16.9040   11.5020   22.2500 H   0  0  0  0  0  0  0  0  0  0  0  0
   15.5900   10.3940   23.5360 C   0  0  0  0  0  0  0  0  0  0  0  0
   14.7880    9.9810   22.3030 C   0  0  0  0  0  0  0  0  0  0  0  0
   14.7100   10.8270   21.6200 H   0  0  0  0  0  0  0  0  0  0  0  0
   13.7900    9.6660   22.6070 H   0  0  0  0  0  0  0  0  0  0  0  0
   15.2920    9.1550   21.8010 H   0  0  0  0  0  0  0  0  0  0  0  0
   14.8390   11.5220   24.2540 C   0  0  0  0  0  0  0  0  0  0  0  0
   14.7680   12.3880   23.5950 H   0  0  0  0  0  0  0  0  0  0  0  0
   15.3780   11.7980   25.1600 H   0  0  0  0  0  0  0  0  0  0  0  0
   13.8370   11.1820   24.5170 H   0  0  0  0  0  0  0  0  0  0  0  0
   15.6820    9.1850   24.4740 C   0  0  0  0  0  0  0  0  0  0  0  0
   16.2150    8.3760   23.9730 H   0  0  0  0  0  0  0  0  0  0  0  0
   14.6780    8.8510   24.7360 H   0  0  0  0  0  0  0  0  0  0  0  0
   16.2190    9.4680   25.3790 H   0  0  0  0  0  0  0  0  0  0  0  0
   18.7560   10.8740   24.9520 C   0  0  0  0  0  0  0  0  0  0  0  0
   18.9600    9.8320   24.7560 H   0  0  0  0  0  0  0  0  0  0  0  0
   19.4590   11.5510   25.9480 C   0  0  0  0  0  0  0  0  0  0  0  0
   20.5360   10.8080   26.7850 C   0  0  3  0  0  0  0  0  0  0  0  0
   19.9900   10.1230   27.4330 H   0  0  0  0  0  0  0  0  0  0  0  0
   21.4560   10.0070   25.9350 N   0  3  0  0  0  0  0  0  0  0  0  0
   20.9230    9.2560   25.5200 H   0  0  0  0  0  0  0  0  0  0  0  0
   22.1740    9.6200   26.5310 H   0  0  0  0  0  0  0  0  0  0  0  0
   22.1230   10.7540   24.8410 C   0  0  0  0  0  0  0  0  0  0  0  0
   22.9550   11.3310   25.2450 H   0  0  0  0  0  0  0  0  0  0  0  0
   21.4090   11.4280   24.3690 H   0  0  0  0  0  0  0  0  0  0  0  0
   22.6450    9.7510   23.8090 C   0  0  3  0  0  0  0  0  0  0  0  0
   23.3750    9.1180   24.3130 H   0  0  0  0  0  0  0  0  0  0  0  0
   21.5400    8.9980   23.3120 O   0  0  0  0  0  0  0  0  0  0  0  0
   20.9400    9.6120   22.8830 H   0  0  0  0  0  0  0  0  0  0  0  0
   23.3740   10.4100   22.6280 C   0  0  3  0  0  0  0  0  0  0  0  0
   22.6060   11.0350   22.1720 H   0  0  0  0  0  0  0  0  0  0  0  0
   24.5320   11.2120   23.0460 N   0  0  0  0  0  0  0  0  0  0  0  0
   25.3700   10.7320   23.3410 H   0  0  0  0  0  0  0  0  0  0  0  0
   24.5260   12.5430   23.0540 C   0  0  0  0  0  0  0  0  0  0  0  0
   23.5360   13.2390   22.8220 O   0  0  0  0  0  0  0  0  0  0  0  0
   25.8180   13.2310   23.4680 C   0  0  3  0  0  0  0  0  0  0  0  0
   26.3870   12.6440   24.1890 H   0  0  0  0  0  0  0  0  0  0  0  0
   26.7300   13.3970   22.2470 C   0  0  0  0  0  0  0  0  0  0  0  0
   26.2140   13.9800   21.4850 H   0  0  0  0  0  0  0  0  0  0  0  0
   26.9810   12.4150   21.8450 H   0  0  0  0  0  0  0  0  0  0  0  0
   27.6430   13.9130   22.5430 H   0  0  0  0  0  0  0  0  0  0  0  0
   25.4530   14.4780   24.0770 O   0  0  0  0  0  0  0  0  0  0  0  0
   25.4070   14.3180   25.5070 C   0  0  0  0  0  0  0  0  0  0  0  0
   25.1300   15.2650   25.9700 H   0  0  0  0  0  0  0  0  0  0  0  0
   26.3870   14.0100   25.8700 H   0  0  0  0  0  0  0  0  0  0  0  0
   24.6690   13.5580   25.7640 H   0  0  0  0  0  0  0  0  0  0  0  0
   23.9280    9.3870   21.6250 C   0  0  0  0  0  0  0  0  0  0  0  0
   23.1280    8.7260   21.2920 H   0  0  0  0  0  0  0  0  0  0  0  0
   24.7150    8.7970   22.0950 H   0  0  0  0  0  0  0  0  0  0  0  0
   24.4970   10.1510   20.4340 C   0  0  0  0  0  0  0  0  0  0  0  0
   25.8250   10.0160   20.0360 C   0  0  0  0  0  0  0  0  0  0  0  0
   26.4970    9.3560   20.5650 H   0  0  0  0  0  0  0  0  0  0  0  0
   26.2680   10.7560   18.9340 C   0  0  0  0  0  0  0  0  0  0  0  0
   27.4870   10.8240   18.3260 O   0  0  0  0  0  0  0  0  0  0  0  0
   27.4340   12.0710   17.5850 C   0  0  0  0  0  0  0  0  0  0  0  0
   28.0590   12.0150   16.6930 H   0  0  0  0  0  0  0  0  0  0  0  0
   27.7640   12.9020   18.2080 H   0  0  0  0  0  0  0  0  0  0  0  0
   26.0540   12.2260   17.2260 O   0  0  0  0  0  0  0  0  0  0  0  0
   25.3970   11.6190   18.2490 C   0  0  0  0  0  0  0  0  0  0  0  0
   24.0860   11.7460   18.6570 C   0  0  0  0  0  0  0  0  0  0  0  0
   23.4120   12.4100   18.1360 H   0  0  0  0  0  0  0  0  0  0  0  0
   23.6450   11.0090   19.7470 C   0  0  0  0  0  0  0  0  0  0  0  0
   22.6180   11.1040   20.0690 H   0  0  0  0  0  0  0  0  0  0  0  0
  1  2  1  0  0  0  0
  1  3  1  0  0  0  0
  1  4  1  0  0  0  0
  1 10  1  0  0  0  0
  4  5  1  0  0  0  0
  4  6  1  0  0  0  0
  4  7  1  0  0  0  0
  7  8  1  0  0  0  0
  7  9  1  0  0  0  0
  7 10  1  0  0  0  0
 10 11  1  0  0  0  0
 10 14  1  0  0  0  0
 11 12  1  0  0  0  0
 11 13  1  0  0  0  0
 11 39  1  0  0  0  0
 14 15  1  0  0  0  0
 15 16  1  0  0  0  0
 15 38  2  0  0  0  0
 16 17  2  0  0  0  0
 17 18  1  0  0  0  0
 17 19  1  0  0  0  0
 19 20  1  0  0  0  0
 19 36  2  0  0  0  0
 20 21  1  0  0  0  0
 20 22  1  0  0  0  0
 20 23  1  0  0  0  0
 23 24  1  0  0  0  0
 23 28  1  0  0  0  0
 23 32  1  0  0  0  0
 24 25  1  0  0  0  0
 24 26  1  0  0  0  0
 24 27  1  0  0  0  0
 28 29  1  0  0  0  0
 28 30  1  0  0  0  0
 28 31  1  0  0  0  0
 32 33  1  0  0  0  0
 32 34  1  0  0  0  0
 32 35  1  0  0  0  0
 36 37  1  0  0  0  0
 36 38  1  0  0  0  0
 38 39  1  0  0  0  0
 39 40  1  0  0  0  0
 39 41  1  0  0  0  0
 41 42  1  0  0  0  0
 41 43  1  0  0  0  0
 41 44  1  0  0  0  0
 44 45  1  0  0  0  0
 44 46  1  0  0  0  0
 44 47  1  0  0  0  0
 47 48  1  0  0  0  0
 47 49  1  0  0  0  0
 47 51  1  0  0  0  0
 49 50  1  0  0  0  0
 51 52  1  0  0  0  0
 51 53  1  0  0  0  0
 51 68  1  0  0  0  0
 53 54  1  0  0  0  0
 53 55  1  0  0  0  0
 55 56  2  0  0  0  0
 55 57  1  0  0  0  0
 57 58  1  0  0  0  0
 57 59  1  0  0  0  0
 57 63  1  0  0  0  0
 59 60  1  0  0  0  0
 59 61  1  0  0  0  0
 59 62  1  0  0  0  0
 63 64  1  0  0  0  0
 64 65  1  0  0  0  0
 64 66  1  0  0  0  0
 64 67  1  0  0  0  0
 68 69  1  0  0  0  0
 68 70  1  0  0  0  0
 68 71  1  0  0  0  0
 71 72  1  0  0  0  0
 71 83  2  0  0  0  0
 72 73  1  0  0  0  0
 72 74  2  0  0  0  0
 74 75  1  0  0  0  0
 74 80  1  0  0  0  0
 75 76  1  0  0  0  0
 76 77  1  0  0  0  0
 76 78  1  0  0  0  0
 76 79  1  0  0  0  0
 79 80  1  0  0  0  0
 80 81  2  0  0  0  0
 81 82  1  0  0  0  0
 81 83  1  0  0  0  0
 83 84  1  0  0  0  0
M  CHG  1  41   1
M  END
>  <PARENT_CMPD_ID>
4DH6

>  <STANDARD_TYPE>
IC50

>  <RELATION>
=

>  <STANDARD_VALUE>
0.016799999

>  <STANDARD_UNITS>
uM

>  <COMPOUND_KEY>
21

>  <PUBMED_ID>
22468639

>  <JOURNAL>
J.Med.Chem.

>  <YEAR>
2012

>  <VOLUME>
55

>  <FIRST_PAGE>
9009

>  <Company>
Amgen

>  <Resolution>
2.5

>  <idx>
45

>  <Model>
Train

>  <target>
7.7746906

>  <des_pred_mlr>
7.5152898

>  <RF_Canvas>
7.8939161

>  <DNN_Canvas>
7.9180942

>  <pred_CoMFA>
7.6399999

>  <pred_COMSIA>
7.4057999

>  <pred_abm5>
7.8274097

>  <pred_ff8>
7.6021781

>  <pred_gau6>
7.9227886

>  <CID>
BACE_45

>  <active>
1

>  <des_class_bayes>
0

>  <maacs_class_bayes>
1

>  <radial_class_bayes>
1

>  <dend_class_bayes>
1

>  <molprint_class_bayes>
1

>  <RF_canvas>
1

>  <DNN_canvas>
1

$$$$
3K5C_603
  MOE2015           3D

 88 92  0  0  1  0  0  0  0  0999 V2000
   24.1440   11.5750   23.0040 N   0  0  0  0  0  0  0  0  0  0  0  0
   23.0090   10.7250   22.6280 C   0  0  3  0  0  0  0  0  0  0  0  0
   23.4900    9.7000   21.5410 C   0  0  0  0  0  0  0  0  0  0  0  0
   24.2330   10.4040   20.3930 C   0  0  0  0  0  0  0  0  0  0  0  0
   25.6480   10.3660   20.3390 C   0  0  0  0  0  0  0  0  0  0  0  0
   26.3470   11.0180   19.2900 C   0  0  0  0  0  0  0  0  0  0  0  0
   25.6170   11.7130   18.2920 C   0  0  0  0  0  0  0  0  0  0  0  0
   24.2090   11.7510   18.3450 C   0  0  0  0  0  0  0  0  0  0  0  0
   23.5120   11.1000   19.3870 C   0  0  0  0  0  0  0  0  0  0  0  0
   27.7390   11.0020   19.2030 O   0  0  0  0  0  0  0  0  0  0  0  0
   28.6060   10.1300   19.9480 C   0  0  0  0  0  0  0  0  0  0  0  0
   29.9050   10.8620   20.3680 C   0  0  0  0  0  0  0  0  0  0  0  0
   29.6810   12.1740   21.1600 C   0  0  0  0  0  0  0  0  0  0  0  0
   29.4220   11.8720   22.6580 C   0  0  0  0  0  0  0  0  0  0  0  0
   29.1460   13.1320   23.3460 N   0  0  0  0  0  0  0  0  0  0  0  0
   27.9160   13.7030   23.4910 C   0  0  0  0  0  0  0  0  0  0  0  0
   26.6950   13.0340   23.1930 C   0  0  0  0  0  0  0  0  0  0  0  0
   25.4510   13.6830   23.3710 C   0  0  0  0  0  0  0  0  0  0  0  0
   25.4150   15.0190   23.8490 C   0  0  0  0  0  0  0  0  0  0  0  0
   26.6190   15.6990   24.1480 C   0  0  0  0  0  0  0  0  0  0  0  0
   27.8600   15.0350   23.9670 C   0  0  0  0  0  0  0  0  0  0  0  0
   26.5760   17.1450   24.6660 C   0  0  0  0  0  0  0  0  0  0  0  0
   26.4970   17.0810   26.1070 O   0  0  0  0  0  0  0  0  0  0  0  0
   27.6860   17.5570   26.7820 C   0  0  0  0  0  0  0  0  0  0  0  0
   24.1760   12.9370   23.0490 C   0  0  0  0  0  0  0  0  0  0  0  0
   23.1740   13.6060   22.8280 O   0  0  0  0  0  0  0  0  0  0  0  0
   22.4630   10.0170   23.8950 C   0  0  3  0  0  0  0  0  0  0  0  0
   21.2940    9.2520   23.5720 O   0  0  0  0  0  0  0  0  0  0  0  0
   22.0150   11.0420   24.9660 C   0  0  0  0  0  0  0  0  0  0  0  0
   21.2810   10.3930   26.0710 N   0  3  0  0  0  0  0  0  0  0  0  0
   20.4440   11.3520   26.8100 C   0  0  0  0  0  0  0  0  0  0  0  0
   20.1600   10.9330   28.2670 C   0  0  0  0  0  0  0  0  0  0  0  0
   21.1160   12.1110   27.9810 C   0  0  0  0  0  0  0  0  0  0  0  0
   19.2430   11.9820   26.0930 C   0  0  0  0  0  0  0  0  0  0  0  0
   18.2510   11.1420   25.5400 C   0  0  0  0  0  0  0  0  0  0  0  0
   17.1250   11.6890   24.8700 C   0  0  0  0  0  0  0  0  0  0  0  0
   17.0170   13.0990   24.7620 C   0  0  0  0  0  0  0  0  0  0  0  0
   18.0060   13.9490   25.3090 C   0  0  0  0  0  0  0  0  0  0  0  0
   19.1200   13.3910   25.9740 C   0  0  0  0  0  0  0  0  0  0  0  0
   16.0610   10.7410   24.2840 C   0  0  0  0  0  0  0  0  0  0  0  0
   16.4110   10.3570   22.8210 C   0  0  0  0  0  0  0  0  0  0  0  0
   15.7220    9.4940   25.1490 C   0  0  0  0  0  0  0  0  0  0  0  0
   24.9970   11.0980   23.2580 H   0  0  0  0  0  0  0  0  0  0  0  0
   22.1970   11.3160   22.2040 H   0  0  0  0  0  0  0  0  0  0  0  0
   22.6220    9.1800   21.1350 H   0  0  0  0  0  0  0  0  0  0  0  0
   24.1610    8.9780   22.0070 H   0  0  0  0  0  0  0  0  0  0  0  0
   26.1990    9.8370   21.1020 H   0  0  0  0  0  0  0  0  0  0  0  0
   26.1400   12.2130   17.4910 H   0  0  0  0  0  0  0  0  0  0  0  0
   23.6590   12.2820   17.5830 H   0  0  0  0  0  0  0  0  0  0  0  0
   22.4330   11.1320   19.4180 H   0  0  0  0  0  0  0  0  0  0  0  0
   28.8650    9.2710   19.3290 H   0  0  0  0  0  0  0  0  0  0  0  0
   28.0850    9.7880   20.8420 H   0  0  0  0  0  0  0  0  0  0  0  0
   30.4670   11.1020   19.4650 H   0  0  0  0  0  0  0  0  0  0  0  0
   30.4900   10.1850   20.9910 H   0  0  0  0  0  0  0  0  0  0  0  0
   28.8200   12.6990   20.7470 H   0  0  0  0  0  0  0  0  0  0  0  0
   30.5670   12.8020   21.0700 H   0  0  0  0  0  0  0  0  0  0  0  0
   30.3020   11.4000   23.0950 H   0  0  0  0  0  0  0  0  0  0  0  0
   28.5660   11.2050   22.7560 H   0  0  0  0  0  0  0  0  0  0  0  0
   29.9330   13.6210   23.7480 H   0  0  0  0  0  0  0  0  0  0  0  0
   26.7190   12.0180   22.8260 H   0  0  0  0  0  0  0  0  0  0  0  0
   24.4670   15.5170   23.9850 H   0  0  0  0  0  0  0  0  0  0  0  0
   28.7780   15.5550   24.1970 H   0  0  0  0  0  0  0  0  0  0  0  0
   25.7020   17.6590   24.2670 H   0  0  0  0  0  0  0  0  0  0  0  0
   27.4790   17.6760   24.3650 H   0  0  0  0  0  0  0  0  0  0  0  0
   27.5480   17.4770   27.8600 H   0  0  0  0  0  0  0  0  0  0  0  0
   27.8630   18.5990   26.5150 H   0  0  0  0  0  0  0  0  0  0  0  0
   28.5420   16.9540   26.4790 H   0  0  0  0  0  0  0  0  0  0  0  0
   23.2710    9.3890   24.2710 H   0  0  0  0  0  0  0  0  0  0  0  0
   20.6270    9.8630   23.2490 H   0  0  0  0  0  0  0  0  0  0  0  0
   21.3660   11.7820   24.4970 H   0  0  0  0  0  0  0  0  0  0  0  0
   22.8970   11.5380   25.3710 H   0  0  0  0  0  0  0  0  0  0  0  0
   21.9470    9.9820   26.7090 H   0  0  0  0  0  0  0  0  0  0  0  0
   20.6890    9.6690   25.6890 H   0  0  0  0  0  0  0  0  0  0  0  0
   20.5550    9.9920   28.6500 H   0  0  0  0  0  0  0  0  0  0  0  0
   19.1800   11.1210   28.7060 H   0  0  0  0  0  0  0  0  0  0  0  0
   20.8110   13.1310   28.2170 H   0  0  0  0  0  0  0  0  0  0  0  0
   22.1860   12.0010   28.1600 H   0  0  0  0  0  0  0  0  0  0  0  0
   18.3500   10.0700   25.6280 H   0  0  0  0  0  0  0  0  0  0  0  0
   16.1670   13.5300   24.2540 H   0  0  0  0  0  0  0  0  0  0  0  0
   17.9100   15.0210   25.2190 H   0  0  0  0  0  0  0  0  0  0  0  0
   19.8780   14.0360   26.3920 H   0  0  0  0  0  0  0  0  0  0  0  0
   15.1350   11.3170   24.2920 H   0  0  0  0  0  0  0  0  0  0  0  0
   17.3360    9.7810   22.8080 H   0  0  0  0  0  0  0  0  0  0  0  0
   16.5380   11.2630   22.2280 H   0  0  0  0  0  0  0  0  0  0  0  0
   15.6040    9.7580   22.4000 H   0  0  0  0  0  0  0  0  0  0  0  0
   16.5950    8.8430   25.2060 H   0  0  0  0  0  0  0  0  0  0  0  0
   14.8930    8.9510   24.6950 H   0  0  0  0  0  0  0  0  0  0  0  0
   15.4410    9.8130   26.1530 H   0  0  0  0  0  0  0  0  0  0  0  0
  1  2  1  0  0  0  0
  1 25  1  0  0  0  0
  1 43  1  0  0  0  0
  2  3  1  0  0  0  0
  2 27  1  0  0  0  0
  2 44  1  0  0  0  0
  3  4  1  0  0  0  0
  3 45  1  0  0  0  0
  3 46  1  0  0  0  0
  4  5  1  0  0  0  0
  4  9  2  0  0  0  0
  5  6  2  0  0  0  0
  5 47  1  0  0  0  0
  6  7  1  0  0  0  0
  6 10  1  0  0  0  0
  7  8  2  0  0  0  0
  7 48  1  0  0  0  0
  8  9  1  0  0  0  0
  8 49  1  0  0  0  0
  9 50  1  0  0  0  0
 10 11  1  0  0  0  0
 11 12  1  0  0  0  0
 11 51  1  0  0  0  0
 11 52  1  0  0  0  0
 12 13  1  0  0  0  0
 12 53  1  0  0  0  0
 12 54  1  0  0  0  0
 13 14  1  0  0  0  0
 13 55  1  0  0  0  0
 13 56  1  0  0  0  0
 14 15  1  0  0  0  0
 14 57  1  0  0  0  0
 14 58  1  0  0  0  0
 15 16  1  0  0  0  0
 15 59  1  0  0  0  0
 16 17  1  0  0  0  0
 16 21  2  0  0  0  0
 17 18  2  0  0  0  0
 17 60  1  0  0  0  0
 18 19  1  0  0  0  0
 18 25  1  0  0  0  0
 19 20  2  0  0  0  0
 19 61  1  0  0  0  0
 20 21  1  0  0  0  0
 20 22  1  0  0  0  0
 21 62  1  0  0  0  0
 22 23  1  0  0  0  0
 22 63  1  0  0  0  0
 22 64  1  0  0  0  0
 23 24  1  0  0  0  0
 24 65  1  0  0  0  0
 24 66  1  0  0  0  0
 24 67  1  0  0  0  0
 25 26  2  0  0  0  0
 27 28  1  0  0  0  0
 27 29  1  0  0  0  0
 27 68  1  0  0  0  0
 28 69  1  0  0  0  0
 29 30  1  0  0  0  0
 29 70  1  0  0  0  0
 29 71  1  0  0  0  0
 30 31  1  0  0  0  0
 30 72  1  0  0  0  0
 30 73  1  0  0  0  0
 31 32  1  0  0  0  0
 31 33  1  0  0  0  0
 31 34  1  0  0  0  0
 32 33  1  0  0  0  0
 32 74  1  0  0  0  0
 32 75  1  0  0  0  0
 33 76  1  0  0  0  0
 33 77  1  0  0  0  0
 34 35  1  0  0  0  0
 34 39  2  0  0  0  0
 35 36  2  0  0  0  0
 35 78  1  0  0  0  0
 36 37  1  0  0  0  0
 36 40  1  0  0  0  0
 37 38  2  0  0  0  0
 37 79  1  0  0  0  0
 38 39  1  0  0  0  0
 38 80  1  0  0  0  0
 39 81  1  0  0  0  0
 40 41  1  0  0  0  0
 40 42  1  0  0  0  0
 40 82  1  0  0  0  0
 41 83  1  0  0  0  0
 41 84  1  0  0  0  0
 41 85  1  0  0  0  0
 42 86  1  0  0  0  0
 42 87  1  0  0  0  0
 42 88  1  0  0  0  0
M  CHG  1  30   1
M  END
>  <PARENT_CMPD_ID>
3K5C

>  <STANDARD_TYPE>
IC50

>  <RELATION>
=

>  <STANDARD_VALUE>
0.017000001

>  <STANDARD_UNITS>
uM

>  <COMPOUND_KEY>
3

>  <PUBMED_ID>
19963375

>  <JOURNAL>
Bioorg.Med.Chem.Lett.

>  <YEAR>
2010

>  <VOLUME>
20

>  <FIRST_PAGE>
603

>  <Company>
Novartis

>  <Resolution>
2.1199999

>  <idx>
46

>  <Model>
Train

>  <target>
7.7695513

>  <des_pred_mlr>
7.6374102

>  <RF_Canvas>
7.6504364

>  <DNN_Canvas>
7.4741287

>  <pred_CoMFA>
7.3776002

>  <pred_COMSIA>
8.0720997

>  <pred_abm5>
7.6230664

>  <pred_ff8>
7.5005107

>  <pred_gau6>
7.9604139

>  <CID>
BACE_46

>  <active>
1

>  <des_class_bayes>
1

>  <maacs_class_bayes>
0

>  <radial_class_bayes>
1

>  <dend_class_bayes>
1

>  <molprint_class_bayes>
1

>  <RF_canvas>
1

>  <DNN_canvas>
1

$$$$
4KE0_4459
  MOE2015           3D

 79 83  0  0  1  0  0  0  0  0999 V2000
   19.2290   12.3250   29.6240 C   0  0  0  0  0  0  0  0  0  0  0  0
   19.9980   13.1490   30.6590 C   0  0  0  0  0  0  0  0  0  0  0  0
   20.7820   13.8450   29.5220 C   0  0  0  0  0  0  0  0  0  0  0  0
   20.1260   12.9060   28.5050 C   0  0  0  0  0  0  0  0  0  0  0  0
   21.1560   11.9190   27.9200 C   0  0  0  0  0  0  0  0  0  0  0  0
   19.4030   13.5950   27.4750 O   0  0  0  0  0  0  0  0  0  0  0  0
   18.8320   12.8190   26.5060 C   0  0  0  0  0  0  0  0  0  0  0  0
   17.7910   13.3680   25.7460 C   0  0  0  0  0  0  0  0  0  0  0  0
   17.1710   12.6080   24.7480 C   0  0  0  0  0  0  0  0  0  0  0  0
   17.5960   11.3090   24.4980 C   0  0  0  0  0  0  0  0  0  0  0  0
   16.9280   10.4580   23.4120 C   0  0  0  0  0  0  0  0  0  0  0  0
   15.9740    9.4410   24.0650 C   0  0  0  0  0  0  0  0  0  0  0  0
   18.6340   10.7690   25.2470 C   0  0  0  0  0  0  0  0  0  0  0  0
   19.2700   11.5150   26.2440 C   0  0  0  0  0  0  0  0  0  0  0  0
   20.4250   10.8600   27.0650 C   0  0  3  0  0  0  0  0  0  0  0  0
   21.3780   10.0960   26.2040 N   0  3  0  0  0  0  0  0  0  0  0  0
   21.9930   10.8730   25.1010 C   0  0  0  0  0  0  0  0  0  0  0  0
   22.4770    9.9050   24.0260 C   0  0  3  0  0  0  0  0  0  0  0  0
   21.3540    9.1500   23.6070 O   0  0  0  0  0  0  0  0  0  0  0  0
   23.1230   10.5860   22.8100 C   0  0  3  0  0  0  0  0  0  0  0  0
   23.5790    9.5350   21.7820 C   0  0  0  0  0  0  0  0  0  0  0  0
   24.3660   10.1610   20.6240 C   0  0  0  0  0  0  0  0  0  0  0  0
   25.7560   10.2880   20.7200 C   0  0  0  0  0  0  0  0  0  0  0  0
   23.7010   10.6050   19.4750 C   0  0  0  0  0  0  0  0  0  0  0  0
   24.4430   11.1800   18.4330 C   0  0  0  0  0  0  0  0  0  0  0  0
   25.8360   11.3130   18.5330 C   0  0  0  0  0  0  0  0  0  0  0  0
   26.4960   10.8580   19.6830 C   0  0  0  0  0  0  0  0  0  0  0  0
   28.0310   10.9960   19.8280 C   0  0  0  0  0  0  0  0  0  0  0  0
   28.4640   12.4420   20.2020 C   0  0  0  0  0  0  0  0  0  0  0  0
   27.8930   12.9420   21.5600 C   0  0  0  0  0  0  0  0  0  0  0  0
   26.5940   13.7690   21.3520 C   0  0  0  0  0  0  0  0  0  0  0  0
   26.0870   14.4340   22.6470 C   0  0  0  0  0  0  0  0  0  0  0  0
   25.5330   13.4360   23.6750 C   0  0  0  0  0  0  0  0  0  0  0  0
   24.2620   12.7440   23.1820 C   0  0  0  0  0  0  0  0  0  0  0  0
   23.3080   13.4130   22.7850 O   0  0  0  0  0  0  0  0  0  0  0  0
   24.2680   11.4080   23.2450 N   0  0  0  0  0  0  0  0  0  0  0  0
   18.1760   12.5920   29.5350 H   0  0  0  0  0  0  0  0  0  0  0  0
   19.3210   11.2470   29.7550 H   0  0  0  0  0  0  0  0  0  0  0  0
   20.6190   12.5540   31.3290 H   0  0  0  0  0  0  0  0  0  0  0  0
   19.3730   13.8220   31.2450 H   0  0  0  0  0  0  0  0  0  0  0  0
   21.8640   13.7370   29.5950 H   0  0  0  0  0  0  0  0  0  0  0  0
   20.5300   14.8970   29.3850 H   0  0  0  0  0  0  0  0  0  0  0  0
   21.6890   11.4250   28.7330 H   0  0  0  0  0  0  0  0  0  0  0  0
   21.8670   12.4620   27.2970 H   0  0  0  0  0  0  0  0  0  0  0  0
   17.4660   14.3810   25.9310 H   0  0  0  0  0  0  0  0  0  0  0  0
   16.3620   13.0310   24.1720 H   0  0  0  0  0  0  0  0  0  0  0  0
   17.6930    9.9260   22.8460 H   0  0  0  0  0  0  0  0  0  0  0  0
   16.3640   11.1050   22.7400 H   0  0  0  0  0  0  0  0  0  0  0  0
   16.5380    8.7940   24.7370 H   0  0  0  0  0  0  0  0  0  0  0  0
   15.5010    8.8370   23.2900 H   0  0  0  0  0  0  0  0  0  0  0  0
   15.2080    9.9720   24.6300 H   0  0  0  0  0  0  0  0  0  0  0  0
   18.9550    9.7560   25.0560 H   0  0  0  0  0  0  0  0  0  0  0  0
   19.9700   10.1320   27.7370 H   0  0  0  0  0  0  0  0  0  0  0  0
   20.8780    9.3180   25.7980 H   0  0  0  0  0  0  0  0  0  0  0  0
   22.1210    9.7470   26.7930 H   0  0  0  0  0  0  0  0  0  0  0  0
   22.8370   11.4470   25.4840 H   0  0  0  0  0  0  0  0  0  0  0  0
   21.2540   11.5530   24.6760 H   0  0  0  0  0  0  0  0  0  0  0  0
   23.2610    9.2850   24.4610 H   0  0  0  0  0  0  0  0  0  0  0  0
   20.7130    9.7630   23.2380 H   0  0  0  0  0  0  0  0  0  0  0  0
   22.3840   11.2310   22.3350 H   0  0  0  0  0  0  0  0  0  0  0  0
   22.6990    9.0340   21.3780 H   0  0  0  0  0  0  0  0  0  0  0  0
   24.2140    8.8050   22.2840 H   0  0  0  0  0  0  0  0  0  0  0  0
   26.2630    9.9400   21.6080 H   0  0  0  0  0  0  0  0  0  0  0  0
   22.6290   10.5060   19.3920 H   0  0  0  0  0  0  0  0  0  0  0  0
   23.9360   11.5240   17.5440 H   0  0  0  0  0  0  0  0  0  0  0  0
   26.3970   11.7640   17.7280 H   0  0  0  0  0  0  0  0  0  0  0  0
   28.4980   10.7250   18.8810 H   0  0  0  0  0  0  0  0  0  0  0  0
   28.3710   10.3160   20.6090 H   0  0  0  0  0  0  0  0  0  0  0  0
   28.1210   13.1160   19.4170 H   0  0  0  0  0  0  0  0  0  0  0  0
   29.5520   12.4710   20.2560 H   0  0  0  0  0  0  0  0  0  0  0  0
   28.6380   13.5680   22.0500 H   0  0  0  0  0  0  0  0  0  0  0  0
   27.6700   12.0810   22.1900 H   0  0  0  0  0  0  0  0  0  0  0  0
   25.8160   13.1050   20.9760 H   0  0  0  0  0  0  0  0  0  0  0  0
   26.7930   14.5490   20.6170 H   0  0  0  0  0  0  0  0  0  0  0  0
   25.2950   15.1360   22.3870 H   0  0  0  0  0  0  0  0  0  0  0  0
   26.9160   14.9750   23.1040 H   0  0  0  0  0  0  0  0  0  0  0  0
   25.3060   13.9710   24.5970 H   0  0  0  0  0  0  0  0  0  0  0  0
   26.2910   12.6780   23.8720 H   0  0  0  0  0  0  0  0  0  0  0  0
   25.0890   10.9430   23.6050 H   0  0  0  0  0  0  0  0  0  0  0  0
  1  2  1  0  0  0  0
  1  4  1  0  0  0  0
  1 37  1  0  0  0  0
  1 38  1  0  0  0  0
  2  3  1  0  0  0  0
  2 39  1  0  0  0  0
  2 40  1  0  0  0  0
  3  4  1  0  0  0  0
  3 41  1  0  0  0  0
  3 42  1  0  0  0  0
  4  5  1  0  0  0  0
  4  6  1  0  0  0  0
  5 15  1  0  0  0  0
  5 43  1  0  0  0  0
  5 44  1  0  0  0  0
  6  7  1  0  0  0  0
  7  8  1  0  0  0  0
  7 14  2  0  0  0  0
  8  9  2  0  0  0  0
  8 45  1  0  0  0  0
  9 10  1  0  0  0  0
  9 46  1  0  0  0  0
 10 11  1  0  0  0  0
 10 13  2  0  0  0  0
 11 12  1  0  0  0  0
 11 47  1  0  0  0  0
 11 48  1  0  0  0  0
 12 49  1  0  0  0  0
 12 50  1  0  0  0  0
 12 51  1  0  0  0  0
 13 14  1  0  0  0  0
 13 52  1  0  0  0  0
 14 15  1  0  0  0  0
 15 16  1  0  0  0  0
 15 53  1  0  0  0  0
 16 17  1  0  0  0  0
 16 54  1  0  0  0  0
 16 55  1  0  0  0  0
 17 18  1  0  0  0  0
 17 56  1  0  0  0  0
 17 57  1  0  0  0  0
 18 19  1  0  0  0  0
 18 20  1  0  0  0  0
 18 58  1  0  0  0  0
 19 59  1  0  0  0  0
 20 21  1  0  0  0  0
 20 36  1  0  0  0  0
 20 60  1  0  0  0  0
 21 22  1  0  0  0  0
 21 61  1  0  0  0  0
 21 62  1  0  0  0  0
 22 23  1  0  0  0  0
 22 24  2  0  0  0  0
 23 27  2  0  0  0  0
 23 63  1  0  0  0  0
 24 25  1  0  0  0  0
 24 64  1  0  0  0  0
 25 26  2  0  0  0  0
 25 65  1  0  0  0  0
 26 27  1  0  0  0  0
 26 66  1  0  0  0  0
 27 28  1  0  0  0  0
 28 29  1  0  0  0  0
 28 67  1  0  0  0  0
 28 68  1  0  0  0  0
 29 30  1  0  0  0  0
 29 69  1  0  0  0  0
 29 70  1  0  0  0  0
 30 31  1  0  0  0  0
 30 71  1  0  0  0  0
 30 72  1  0  0  0  0
 31 32  1  0  0  0  0
 31 73  1  0  0  0  0
 31 74  1  0  0  0  0
 32 33  1  0  0  0  0
 32 75  1  0  0  0  0
 32 76  1  0  0  0  0
 33 34  1  0  0  0  0
 33 77  1  0  0  0  0
 33 78  1  0  0  0  0
 34 35  2  0  0  0  0
 34 36  1  0  0  0  0
 36 79  1  0  0  0  0
M  CHG  1  16   1
M  END
>  <PARENT_CMPD_ID>
4KE0

>  <STANDARD_TYPE>
IC50

>  <RELATION>
=

>  <STANDARD_VALUE>
0.017000001

>  <STANDARD_UNITS>
uM

>  <COMPOUND_KEY>
13

>  <PUBMED_ID>
23769639

>  <JOURNAL>
Bioorg.Med.Chem.Lett.

>  <YEAR>
2013

>  <VOLUME>
23

>  <FIRST_PAGE>
4459

>  <Company>
Amgen

>  <Resolution>
2.3

>  <idx>
47

>  <Model>
Train

>  <target>
7.7695513

>  <des_pred_mlr>
7.4306302

>  <RF_Canvas>
7.6904044

>  <DNN_Canvas>
7.4558249

>  <pred_CoMFA>
7.7725

>  <pred_COMSIA>
7.6191001

>  <pred_abm5>
7.801662

>  <pred_ff8>
8.1154747

>  <pred_gau6>
7.6879306

>  <CID>
BACE_47

>  <active>
1

>  <des_class_bayes>
1

>  <maacs_class_bayes>
1

>  <radial_class_bayes>
1

>  <dend_class_bayes>
1

>  <molprint_class_bayes>
1

>  <RF_canvas>
1

>  <DNN_canvas>
1

$$$$
3OHH_537
  MOE2015           3D

 83 86  0  0  1  0  0  0  0  0999 V2000
   24.3310   16.1210   24.8850 C   0  0  0  0  0  0  0  0  0  0  0  0
   22.9310   13.8120   18.4600 F   0  0  0  0  0  0  0  0  0  0  0  0
   26.8580   14.3670   23.2150 N   0  0  0  0  0  0  0  0  0  0  0  0
   25.8640   13.4990   22.9830 C   0  0  0  0  0  0  0  0  0  0  0  0
   26.6470   10.9930   18.9610 F   0  0  0  0  0  0  0  0  0  0  0  0
   23.5990   18.8220   26.8580 N   0  0  0  0  0  0  0  0  0  0  0  0
   24.7050   13.9810   23.5540 C   0  0  0  0  0  0  0  0  0  0  0  0
   25.0680   15.1840   24.1540 C   0  0  0  0  0  0  0  0  0  0  0  0
   27.0700   16.5780   24.4380 C   0  0  0  0  0  0  0  0  0  0  0  0
   26.4340   15.4360   23.9400 C   0  0  0  0  0  0  0  0  0  0  0  0
   24.1690   18.1780   26.1050 C   0  0  0  0  0  0  0  0  0  0  0  0
   29.6500    9.7810   22.7100 C   0  0  0  0  0  0  0  0  0  0  0  0
   26.3290   17.5060   25.1600 C   0  0  0  0  0  0  0  0  0  0  0  0
   24.9740   17.2620   25.3660 C   0  0  0  0  0  0  0  0  0  0  0  0
   28.1240   14.1440   22.7950 C   0  0  0  0  0  0  0  0  0  0  0  0
   28.5460   13.7720   21.5680 N   0  0  0  0  0  0  0  0  0  0  0  0
   27.7700   14.0680   20.3540 C   0  0  0  0  0  0  0  0  0  0  0  0
   29.8170   13.0840   21.3190 C   0  0  0  0  0  0  0  0  0  0  0  0
   29.7370   11.6060   20.9200 C   0  0  0  0  0  0  0  0  0  0  0  0
   28.8600   10.7720   21.8590 C   0  0  0  0  0  0  0  0  0  0  0  0
   28.9420   14.2790   23.7050 O   0  0  0  0  0  0  0  0  0  0  0  0
   23.3990   13.2740   23.4890 C   0  0  0  0  0  0  0  0  0  0  0  0
   23.5000   12.0010   23.3250 N   0  0  0  0  0  0  0  0  0  0  0  0
   22.4050   11.0890   22.9890 C   0  0  3  0  0  0  0  0  0  0  0  0
   21.9470   10.2950   24.2210 C   0  0  3  0  0  0  0  0  0  0  0  0
   21.3610   11.2550   25.2650 C   0  0  0  0  0  0  0  0  0  0  0  0
   20.6740   10.5500   26.3820 N   0  3  0  0  0  0  0  0  0  0  0  0
   19.6080   11.3300   27.0800 C   0  0  0  0  0  0  0  0  0  0  0  0
   18.4960   11.7780   26.1610 C   0  0  0  0  0  0  0  0  0  0  0  0
   22.2520   13.9430   23.6110 O   0  0  0  0  0  0  0  0  0  0  0  0
   22.7850   10.1910   21.7970 C   0  0  0  0  0  0  0  0  0  0  0  0
   23.4500   10.9890   20.7000 C   0  0  0  0  0  0  0  0  0  0  0  0
   24.7450   10.6250   20.3380 C   0  0  0  0  0  0  0  0  0  0  0  0
   25.4080   11.3320   19.3350 C   0  0  0  0  0  0  0  0  0  0  0  0
   24.8090   12.4140   18.6890 C   0  0  0  0  0  0  0  0  0  0  0  0
   23.5190   12.7770   19.0660 C   0  0  0  0  0  0  0  0  0  0  0  0
   22.8500   12.0740   20.0590 C   0  0  0  0  0  0  0  0  0  0  0  0
   20.9500    9.3700   23.7790 O   0  0  0  0  0  0  0  0  0  0  0  0
   17.7630   10.8060   25.4960 C   0  0  0  0  0  0  0  0  0  0  0  0
   16.7450   11.2160   24.6420 C   0  0  0  0  0  0  0  0  0  0  0  0
   16.4830   12.5780   24.4660 C   0  0  0  0  0  0  0  0  0  0  0  0
   17.2140   13.5720   25.1190 C   0  0  0  0  0  0  0  0  0  0  0  0
   18.2280   13.1350   25.9750 C   0  0  0  0  0  0  0  0  0  0  0  0
   16.1420   10.1630   24.0940 O   0  0  0  0  0  0  0  0  0  0  0  0
   15.8010   10.2160   22.6850 C   0  0  0  0  0  0  0  0  0  0  0  0
   23.2790   15.9640   25.0740 H   0  0  0  0  0  0  0  0  0  0  0  0
   25.9560   12.5720   22.4370 H   0  0  0  0  0  0  0  0  0  0  0  0
   28.1240   16.7370   24.2640 H   0  0  0  0  0  0  0  0  0  0  0  0
   28.9650    9.2250   23.3500 H   0  0  0  0  0  0  0  0  0  0  0  0
   30.3660   10.3230   23.3280 H   0  0  0  0  0  0  0  0  0  0  0  0
   30.1830    9.0870   22.0590 H   0  0  0  0  0  0  0  0  0  0  0  0
   26.7950   18.3980   25.5530 H   0  0  0  0  0  0  0  0  0  0  0  0
   26.8460   14.5770   20.6290 H   0  0  0  0  0  0  0  0  0  0  0  0
   27.5330   13.1370   19.8380 H   0  0  0  0  0  0  0  0  0  0  0  0
   28.3560   14.7090   19.6960 H   0  0  0  0  0  0  0  0  0  0  0  0
   30.4100   13.1480   22.2310 H   0  0  0  0  0  0  0  0  0  0  0  0
   30.3270   13.6150   20.5160 H   0  0  0  0  0  0  0  0  0  0  0  0
   30.7450   11.1900   20.9280 H   0  0  0  0  0  0  0  0  0  0  0  0
   29.3250   11.5410   19.9130 H   0  0  0  0  0  0  0  0  0  0  0  0
   28.3260   11.4500   22.5250 H   0  0  0  0  0  0  0  0  0  0  0  0
   28.1430   10.2140   21.2570 H   0  0  0  0  0  0  0  0  0  0  0  0
   24.4180   11.5950   23.4380 H   0  0  0  0  0  0  0  0  0  0  0  0
   21.5450   11.6780   22.6710 H   0  0  0  0  0  0  0  0  0  0  0  0
   22.7810    9.7650   24.6810 H   0  0  0  0  0  0  0  0  0  0  0  0
   20.6410   11.9080   24.7710 H   0  0  0  0  0  0  0  0  0  0  0  0
   22.1710   11.8550   25.6790 H   0  0  0  0  0  0  0  0  0  0  0  0
   21.3730   10.2970   27.0660 H   0  0  0  0  0  0  0  0  0  0  0  0
   20.2510    9.7130   26.0080 H   0  0  0  0  0  0  0  0  0  0  0  0
   20.0630   12.2130   27.5280 H   0  0  0  0  0  0  0  0  0  0  0  0
   19.1790   10.7050   27.8630 H   0  0  0  0  0  0  0  0  0  0  0  0
   21.8820    9.7260   21.4010 H   0  0  0  0  0  0  0  0  0  0  0  0
   23.4720    9.4170   22.1400 H   0  0  0  0  0  0  0  0  0  0  0  0
   25.2340    9.7980   20.8320 H   0  0  0  0  0  0  0  0  0  0  0  0
   25.3330   12.9560   17.9160 H   0  0  0  0  0  0  0  0  0  0  0  0
   21.8500   12.3710   20.3400 H   0  0  0  0  0  0  0  0  0  0  0  0
   20.2380    9.8780   23.3820 H   0  0  0  0  0  0  0  0  0  0  0  0
   17.9780    9.7570   25.6380 H   0  0  0  0  0  0  0  0  0  0  0  0
   15.6850   12.8720   23.8000 H   0  0  0  0  0  0  0  0  0  0  0  0
   17.0070   14.6220   24.9710 H   0  0  0  0  0  0  0  0  0  0  0  0
   18.8200   13.8660   26.5060 H   0  0  0  0  0  0  0  0  0  0  0  0
   15.3170    9.2840   22.3930 H   0  0  0  0  0  0  0  0  0  0  0  0
   16.7080   10.3540   22.0970 H   0  0  0  0  0  0  0  0  0  0  0  0
   15.1220   11.0490   22.5070 H   0  0  0  0  0  0  0  0  0  0  0  0
  1  8  1  0  0  0  0
  1 14  2  0  0  0  0
  1 46  1  0  0  0  0
  2 36  1  0  0  0  0
  3  4  1  0  0  0  0
  3 10  1  0  0  0  0
  3 15  1  0  0  0  0
  4  7  2  0  0  0  0
  4 47  1  0  0  0  0
  5 34  1  0  0  0  0
  6 11  3  0  0  0  0
  7  8  1  0  0  0  0
  7 22  1  0  0  0  0
  8 10  2  0  0  0  0
  9 10  1  0  0  0  0
  9 13  2  0  0  0  0
  9 48  1  0  0  0  0
 11 14  1  0  0  0  0
 12 20  1  0  0  0  0
 12 49  1  0  0  0  0
 12 50  1  0  0  0  0
 12 51  1  0  0  0  0
 13 14  1  0  0  0  0
 13 52  1  0  0  0  0
 15 16  1  0  0  0  0
 15 21  2  0  0  0  0
 16 17  1  0  0  0  0
 16 18  1  0  0  0  0
 17 53  1  0  0  0  0
 17 54  1  0  0  0  0
 17 55  1  0  0  0  0
 18 19  1  0  0  0  0
 18 56  1  0  0  0  0
 18 57  1  0  0  0  0
 19 20  1  0  0  0  0
 19 58  1  0  0  0  0
 19 59  1  0  0  0  0
 20 60  1  0  0  0  0
 20 61  1  0  0  0  0
 22 23  1  0  0  0  0
 22 30  2  0  0  0  0
 23 24  1  0  0  0  0
 23 62  1  0  0  0  0
 24 25  1  0  0  0  0
 24 31  1  0  0  0  0
 24 63  1  0  0  0  0
 25 26  1  0  0  0  0
 25 38  1  0  0  0  0
 25 64  1  0  0  0  0
 26 27  1  0  0  0  0
 26 65  1  0  0  0  0
 26 66  1  0  0  0  0
 27 28  1  0  0  0  0
 27 67  1  0  0  0  0
 27 68  1  0  0  0  0
 28 29  1  0  0  0  0
 28 69  1  0  0  0  0
 28 70  1  0  0  0  0
 29 39  1  0  0  0  0
 29 43  2  0  0  0  0
 31 32  1  0  0  0  0
 31 71  1  0  0  0  0
 31 72  1  0  0  0  0
 32 33  1  0  0  0  0
 32 37  2  0  0  0  0
 33 34  2  0  0  0  0
 33 73  1  0  0  0  0
 34 35  1  0  0  0  0
 35 36  2  0  0  0  0
 35 74  1  0  0  0  0
 36 37  1  0  0  0  0
 37 75  1  0  0  0  0
 38 76  1  0  0  0  0
 39 40  2  0  0  0  0
 39 77  1  0  0  0  0
 40 41  1  0  0  0  0
 40 44  1  0  0  0  0
 41 42  2  0  0  0  0
 41 78  1  0  0  0  0
 42 43  1  0  0  0  0
 42 79  1  0  0  0  0
 43 80  1  0  0  0  0
 44 45  1  0  0  0  0
 45 81  1  0  0  0  0
 45 82  1  0  0  0  0
 45 83  1  0  0  0  0
M  CHG  1  27   1
M  END
>  <PARENT_CMPD_ID>
3OHH

>  <STANDARD_TYPE>
IC50

>  <RELATION>
=

>  <STANDARD_VALUE>
0.017999999

>  <STANDARD_UNITS>
uM

>  <COMPOUND_KEY>
6n

>  <PUBMED_ID>
21078556

>  <JOURNAL>
Bioorg.Med.Chem.Lett.

>  <YEAR>
2011

>  <VOLUME>
21

>  <FIRST_PAGE>
537

>  <Company>
BMS

>  <Resolution>
2.01

>  <idx>
48

>  <Model>
Train

>  <target>
7.7447276

>  <des_pred_mlr>
8.0434198

>  <RF_Canvas>
7.746655

>  <DNN_Canvas>
7.5842524

>  <pred_CoMFA>
7.8253999

>  <pred_COMSIA>
8.6153002

>  <pred_abm5>
8.0998478

>  <pred_ff8>
7.420042

>  <pred_gau6>
8.228631

>  <CID>
BACE_48

>  <active>
1

>  <des_class_bayes>
1

>  <maacs_class_bayes>
1

>  <radial_class_bayes>
1

>  <dend_class_bayes>
1

>  <molprint_class_bayes>
1

>  <RF_canvas>
1

>  <DNN_canvas>
1

$$$$
4J1E_3980
  MOE2015           3D

 45 47  0  0  1  0  0  0  0  0999 V2000
   22.3110   12.1900   23.1980 C   0  0  3  0  0  0  0  0  0  0  0  0
   21.3080   11.6790   22.1710 C   0  0  0  0  0  0  0  0  0  0  0  0
   22.5440    9.8820   23.8280 C   0  0  0  0  0  0  0  0  0  0  0  0
   21.9800   10.4260   21.4840 C   0  0  3  0  0  0  0  0  0  0  0  0
   23.1080   11.4330   19.3960 C   0  0  0  0  0  0  0  0  0  0  0  0
   21.0160    9.5230   20.6510 C   0  0  0  0  0  0  0  0  0  0  0  0
   28.0790   10.5390   20.3720 C   0  0  0  0  0  0  0  0  0  0  0  0
   29.1770   10.0990   21.2280 C   0  0  0  0  0  0  0  0  0  0  0  0
   22.5580   11.1510   24.2010 O   0  0  0  0  0  0  0  0  0  0  0  0
   22.3110    9.5250   22.5790 N   0  0  0  0  0  0  0  0  0  0  0  0
   23.2250   10.7380   20.6700 C   0  0  0  0  0  0  0  0  0  0  0  0
   24.4830   10.2660   21.0670 C   0  0  0  0  0  0  0  0  0  0  0  0
   25.5810   10.5430   20.2270 C   0  0  0  0  0  0  0  0  0  0  0  0
   25.4770   11.2900   18.9790 C   0  0  0  0  0  0  0  0  0  0  0  0
   24.1960   11.7360   18.5680 C   0  0  0  0  0  0  0  0  0  0  0  0
   21.8840   11.8890   19.0570 F   0  0  0  0  0  0  0  0  0  0  0  0
   22.8890    8.9980   24.8530 N   0  0  0  0  0  0  0  0  0  0  0  0
   26.8190   10.1940   20.7810 N   0  0  0  0  0  0  0  0  0  0  0  0
   28.2930   11.2320   19.3840 O   0  0  0  0  0  0  0  0  0  0  0  0
   28.9150    9.1410   22.1480 N   0  0  0  0  0  0  0  0  0  0  0  0
   29.8240    8.7450   23.0590 C   0  0  0  0  0  0  0  0  0  0  0  0
   31.1130    9.2120   22.9640 C   0  0  0  0  0  0  0  0  0  0  0  0
   31.4480   10.2100   21.9760 C   0  0  0  0  0  0  0  0  0  0  0  0
   30.4800   10.6390   21.0550 C   0  0  0  0  0  0  0  0  0  0  0  0
   32.1300    8.7290   23.8540 C   0  0  0  0  0  0  0  0  0  0  0  0
   32.9510    8.3520   24.5610 N   0  0  0  0  0  0  0  0  0  0  0  0
   21.6720   13.4340   23.9230 C   0  0  0  0  0  0  0  0  0  0  0  0
   20.5190   13.0690   24.5220 F   0  0  0  0  0  0  0  0  0  0  0  0
   22.5770   13.7770   24.8520 F   0  0  0  0  0  0  0  0  0  0  0  0
   21.5360   14.3990   22.9540 F   0  0  0  0  0  0  0  0  0  0  0  0
   19.8210    9.2960   21.4340 F   0  0  0  0  0  0  0  0  0  0  0  0
   23.2460   12.4560   22.7060 H   0  0  0  0  0  0  0  0  0  0  0  0
   21.1000   12.4500   21.4290 H   0  0  0  0  0  0  0  0  0  0  0  0
   20.3790   11.3880   22.6620 H   0  0  0  0  0  0  0  0  0  0  0  0
   21.5000    8.5710   20.4310 H   0  0  0  0  0  0  0  0  0  0  0  0
   20.7560   10.0230   19.7180 H   0  0  0  0  0  0  0  0  0  0  0  0
   24.6070    9.7100   21.9840 H   0  0  0  0  0  0  0  0  0  0  0  0
   26.3530   11.4980   18.3830 H   0  0  0  0  0  0  0  0  0  0  0  0
   24.0640   12.2890   17.6500 H   0  0  0  0  0  0  0  0  0  0  0  0
   22.9750    8.0100   24.6600 H   0  0  0  0  0  0  0  0  0  0  0  0
   23.0530    9.3470   25.7870 H   0  0  0  0  0  0  0  0  0  0  0  0
   26.7760    9.6030   21.5990 H   0  0  0  0  0  0  0  0  0  0  0  0
   29.5440    8.0690   23.8540 H   0  0  0  0  0  0  0  0  0  0  0  0
   32.4440   10.6270   21.9460 H   0  0  0  0  0  0  0  0  0  0  0  0
   30.7110   11.3370   20.2640 H   0  0  0  0  0  0  0  0  0  0  0  0
  1  2  1  0  0  0  0
  1  9  1  0  0  0  0
  1 27  1  0  0  0  0
  1 32  1  0  0  0  0
  2  4  1  0  0  0  0
  2 33  1  0  0  0  0
  2 34  1  0  0  0  0
  3  9  1  0  0  0  0
  3 10  2  0  0  0  0
  3 17  1  0  0  0  0
  4  6  1  0  0  0  0
  4 10  1  0  0  0  0
  4 11  1  0  0  0  0
  5 11  1  0  0  0  0
  5 15  2  0  0  0  0
  5 16  1  0  0  0  0
  6 31  1  0  0  0  0
  6 35  1  0  0  0  0
  6 36  1  0  0  0  0
  7  8  1  0  0  0  0
  7 18  1  0  0  0  0
  7 19  2  0  0  0  0
  8 20  1  0  0  0  0
  8 24  2  0  0  0  0
 11 12  2  0  0  0  0
 12 13  1  0  0  0  0
 12 37  1  0  0  0  0
 13 14  2  0  0  0  0
 13 18  1  0  0  0  0
 14 15  1  0  0  0  0
 14 38  1  0  0  0  0
 15 39  1  0  0  0  0
 17 40  1  0  0  0  0
 17 41  1  0  0  0  0
 18 42  1  0  0  0  0
 20 21  2  0  0  0  0
 21 22  1  0  0  0  0
 21 43  1  0  0  0  0
 22 23  2  0  0  0  0
 22 25  1  0  0  0  0
 23 24  1  0  0  0  0
 23 44  1  0  0  0  0
 24 45  1  0  0  0  0
 25 26  3  0  0  0  0
 27 28  1  0  0  0  0
 27 29  1  0  0  0  0
 27 30  1  0  0  0  0
M  END
>  <PARENT_CMPD_ID>
4J1E

>  <STANDARD_TYPE>
IC50

>  <RELATION>
=

>  <STANDARD_VALUE>
0.018999999

>  <STANDARD_UNITS>
uM

>  <COMPOUND_KEY>
88

>  <PUBMED_ID>
23590342

>  <JOURNAL>
J.Med.Chem.

>  <YEAR>
2013

>  <VOLUME>
56

>  <FIRST_PAGE>
3980

>  <Company>
Roche

>  <Resolution>
1.78

>  <idx>
49

>  <Model>
Train

>  <target>
7.7212462

>  <des_pred_mlr>
6.8106799

>  <RF_Canvas>
7.6074533

>  <DNN_Canvas>
7.2851672

>  <pred_CoMFA>
7.7514

>  <pred_COMSIA>
6.7786999

>  <pred_abm5>
7.5500531

>  <pred_ff8>
7.6610222

>  <pred_gau6>
7.4738259

>  <CID>
BACE_49

>  <active>
1

>  <des_class_bayes>
1

>  <maacs_class_bayes>
1

>  <radial_class_bayes>
1

>  <dend_class_bayes>
1

>  <molprint_class_bayes>
1

>  <RF_canvas>
1

>  <DNN_canvas>
1

$$$$
2WF3_3669
  MOE2015           3D

 82 85  0  0  1  0  0  0  0  0999 V2000
   23.3940   13.5540   23.4540 O   0  0  0  0  0  0  0  0  0  0  0  0
   24.3920   12.8150   23.4410 C   0  0  0  0  0  0  0  0  0  0  0  0
   25.7370   13.4360   23.5620 C   0  0  0  0  0  0  0  0  0  0  0  0
   25.9830   14.4460   24.4600 C   0  0  0  0  0  0  0  0  0  0  0  0
   27.2170   15.0630   24.5760 C   0  0  0  0  0  0  0  0  0  0  0  0
   28.2630   14.6760   23.7570 C   0  0  0  0  0  0  0  0  0  0  0  0
   29.6600   15.3090   23.7740 C   0  0  0  0  0  0  0  0  0  0  0  0
   29.6240   16.8250   24.1260 C   0  0  0  0  0  0  0  0  0  0  0  0
   29.7590   17.0120   25.6570 C   0  0  0  0  0  0  0  0  0  0  0  0
   28.6290   16.0770   26.5010 S   0  0  0  0  0  0  0  0  0  0  0  0
   29.1530   14.7500   26.6200 O   0  0  0  0  0  0  0  0  0  0  0  0
   28.3120   16.7510   27.7530 O   0  0  0  0  0  0  0  0  0  0  0  0
   27.4050   16.1030   25.5390 N   0  0  0  0  0  0  0  0  0  0  0  0
   26.4940   17.2320   25.6080 C   0  0  0  0  0  0  0  0  0  0  0  0
   26.7780   13.0110   22.7660 C   0  0  0  0  0  0  0  0  0  0  0  0
   28.0440   13.6420   22.8760 C   0  0  0  0  0  0  0  0  0  0  0  0
   29.0590   13.2410   22.0760 N   0  0  0  0  0  0  0  0  0  0  0  0
   28.8680   11.9820   21.3570 C   0  0  0  0  0  0  0  0  0  0  0  0
   30.1000   11.4920   20.7370 C   0  0  0  0  0  0  0  0  0  0  0  0
   24.3220   11.5020   23.2100 N   0  0  0  0  0  0  0  0  0  0  0  0
   23.1010   10.8320   22.8450 C   0  0  3  0  0  0  0  0  0  0  0  0
   23.4270    9.9010   21.6700 C   0  0  0  0  0  0  0  0  0  0  0  0
   24.3380   10.4990   20.6290 C   0  0  0  0  0  0  0  0  0  0  0  0
   25.5080    9.8150   20.2310 C   0  0  0  0  0  0  0  0  0  0  0  0
   26.3370   10.3360   19.2570 C   0  0  0  0  0  0  0  0  0  0  0  0
   26.0000   11.5590   18.6670 C   0  0  0  0  0  0  0  0  0  0  0  0
   24.8110   12.2270   19.0460 C   0  0  0  0  0  0  0  0  0  0  0  0
   23.9960   11.7150   20.0200 C   0  0  0  0  0  0  0  0  0  0  0  0
   22.5280   10.1250   24.0580 C   0  0  3  0  0  0  0  0  0  0  0  0
   21.4240    9.2590   23.7290 O   0  0  0  0  0  0  0  0  0  0  0  0
   22.0100   11.1300   25.1000 C   0  0  0  0  0  0  0  0  0  0  0  0
   21.3640   10.3670   26.1920 N   0  3  0  0  0  0  0  0  0  0  0  0
   20.3130   10.9120   27.0800 C   0  0  0  0  0  0  0  0  0  0  0  0
   19.2040   11.6170   26.3030 C   0  0  0  0  0  0  0  0  0  0  0  0
   18.3250   10.8910   25.5090 C   0  0  0  0  0  0  0  0  0  0  0  0
   17.3460   11.5590   24.7770 C   0  0  0  0  0  0  0  0  0  0  0  0
   16.4860   10.8420   23.9950 O   0  0  0  0  0  0  0  0  0  0  0  0
   16.5300    9.4410   24.0880 C   0  0  0  0  0  0  0  0  0  0  0  0
   17.2180   12.9310   24.8520 C   0  0  0  0  0  0  0  0  0  0  0  0
   18.0790   13.6590   25.6450 C   0  0  0  0  0  0  0  0  0  0  0  0
   19.0950   13.0130   26.3540 C   0  0  0  0  0  0  0  0  0  0  0  0
   25.1790   14.7730   25.1030 H   0  0  0  0  0  0  0  0  0  0  0  0
   30.1100   15.1900   22.7880 H   0  0  0  0  0  0  0  0  0  0  0  0
   30.2690   14.7920   24.5160 H   0  0  0  0  0  0  0  0  0  0  0  0
   28.6780   17.2520   23.7910 H   0  0  0  0  0  0  0  0  0  0  0  0
   30.4490   17.3320   23.6250 H   0  0  0  0  0  0  0  0  0  0  0  0
   29.6010   18.0630   25.9000 H   0  0  0  0  0  0  0  0  0  0  0  0
   30.7620   16.7150   25.9620 H   0  0  0  0  0  0  0  0  0  0  0  0
   25.6970   17.1010   24.8760 H   0  0  0  0  0  0  0  0  0  0  0  0
   27.0380   18.1510   25.3920 H   0  0  0  0  0  0  0  0  0  0  0  0
   26.0640   17.2910   26.6080 H   0  0  0  0  0  0  0  0  0  0  0  0
   26.6320   12.2040   22.0640 H   0  0  0  0  0  0  0  0  0  0  0  0
   29.9050   13.7840   21.9800 H   0  0  0  0  0  0  0  0  0  0  0  0
   28.1220   12.1360   20.5770 H   0  0  0  0  0  0  0  0  0  0  0  0
   28.5090   11.2300   22.0600 H   0  0  0  0  0  0  0  0  0  0  0  0
   30.4710   12.2340   20.0310 H   0  0  0  0  0  0  0  0  0  0  0  0
   29.8960   10.5600   20.2100 H   0  0  0  0  0  0  0  0  0  0  0  0
   30.8500   11.3170   21.5080 H   0  0  0  0  0  0  0  0  0  0  0  0
   25.1650   10.9530   23.2950 H   0  0  0  0  0  0  0  0  0  0  0  0
   22.3240   11.5230   22.5180 H   0  0  0  0  0  0  0  0  0  0  0  0
   22.4910    9.6260   21.1850 H   0  0  0  0  0  0  0  0  0  0  0  0
   23.9070    9.0070   22.0680 H   0  0  0  0  0  0  0  0  0  0  0  0
   25.7580    8.8720   20.6950 H   0  0  0  0  0  0  0  0  0  0  0  0
   27.2300    9.8080   18.9560 H   0  0  0  0  0  0  0  0  0  0  0  0
   26.6480   11.9940   17.9210 H   0  0  0  0  0  0  0  0  0  0  0  0
   24.5430   13.1540   18.5600 H   0  0  0  0  0  0  0  0  0  0  0  0
   23.1010   12.2410   20.3160 H   0  0  0  0  0  0  0  0  0  0  0  0
   23.3530    9.5350   24.4570 H   0  0  0  0  0  0  0  0  0  0  0  0
   20.7170    9.8090   23.3820 H   0  0  0  0  0  0  0  0  0  0  0  0
   21.2850   11.8000   24.6380 H   0  0  0  0  0  0  0  0  0  0  0  0
   22.8410   11.7120   25.4970 H   0  0  0  0  0  0  0  0  0  0  0  0
   22.1140   10.0770   26.8030 H   0  0  0  0  0  0  0  0  0  0  0  0
   20.9550    9.5550   25.7520 H   0  0  0  0  0  0  0  0  0  0  0  0
   20.7690   11.6260   27.7650 H   0  0  0  0  0  0  0  0  0  0  0  0
   19.8750   10.0920   27.6490 H   0  0  0  0  0  0  0  0  0  0  0  0
   18.4000    9.8150   25.4600 H   0  0  0  0  0  0  0  0  0  0  0  0
   15.7930    9.0090   23.4110 H   0  0  0  0  0  0  0  0  0  0  0  0
   16.3060    9.1380   25.1110 H   0  0  0  0  0  0  0  0  0  0  0  0
   17.5250    9.0900   23.8140 H   0  0  0  0  0  0  0  0  0  0  0  0
   16.4440   13.4340   24.2900 H   0  0  0  0  0  0  0  0  0  0  0  0
   17.9680   14.7310   25.7180 H   0  0  0  0  0  0  0  0  0  0  0  0
   19.7950   13.5890   26.9410 H   0  0  0  0  0  0  0  0  0  0  0  0
  1  2  2  0  0  0  0
  2  3  1  0  0  0  0
  2 20  1  0  0  0  0
  3  4  1  0  0  0  0
  3 15  2  0  0  0  0
  4  5  2  0  0  0  0
  4 42  1  0  0  0  0
  5  6  1  0  0  0  0
  5 13  1  0  0  0  0
  6  7  1  0  0  0  0
  6 16  2  0  0  0  0
  7  8  1  0  0  0  0
  7 43  1  0  0  0  0
  7 44  1  0  0  0  0
  8  9  1  0  0  0  0
  8 45  1  0  0  0  0
  8 46  1  0  0  0  0
  9 10  1  0  0  0  0
  9 47  1  0  0  0  0
  9 48  1  0  0  0  0
 10 11  2  0  0  0  0
 10 12  2  0  0  0  0
 10 13  1  0  0  0  0
 13 14  1  0  0  0  0
 14 49  1  0  0  0  0
 14 50  1  0  0  0  0
 14 51  1  0  0  0  0
 15 16  1  0  0  0  0
 15 52  1  0  0  0  0
 16 17  1  0  0  0  0
 17 18  1  0  0  0  0
 17 53  1  0  0  0  0
 18 19  1  0  0  0  0
 18 54  1  0  0  0  0
 18 55  1  0  0  0  0
 19 56  1  0  0  0  0
 19 57  1  0  0  0  0
 19 58  1  0  0  0  0
 20 21  1  0  0  0  0
 20 59  1  0  0  0  0
 21 22  1  0  0  0  0
 21 29  1  0  0  0  0
 21 60  1  0  0  0  0
 22 23  1  0  0  0  0
 22 61  1  0  0  0  0
 22 62  1  0  0  0  0
 23 24  1  0  0  0  0
 23 28  2  0  0  0  0
 24 25  2  0  0  0  0
 24 63  1  0  0  0  0
 25 26  1  0  0  0  0
 25 64  1  0  0  0  0
 26 27  2  0  0  0  0
 26 65  1  0  0  0  0
 27 28  1  0  0  0  0
 27 66  1  0  0  0  0
 28 67  1  0  0  0  0
 29 30  1  0  0  0  0
 29 31  1  0  0  0  0
 29 68  1  0  0  0  0
 30 69  1  0  0  0  0
 31 32  1  0  0  0  0
 31 70  1  0  0  0  0
 31 71  1  0  0  0  0
 32 33  1  0  0  0  0
 32 72  1  0  0  0  0
 32 73  1  0  0  0  0
 33 34  1  0  0  0  0
 33 74  1  0  0  0  0
 33 75  1  0  0  0  0
 34 35  1  0  0  0  0
 34 41  2  0  0  0  0
 35 36  2  0  0  0  0
 35 76  1  0  0  0  0
 36 37  1  0  0  0  0
 36 39  1  0  0  0  0
 37 38  1  0  0  0  0
 38 77  1  0  0  0  0
 38 78  1  0  0  0  0
 38 79  1  0  0  0  0
 39 40  2  0  0  0  0
 39 80  1  0  0  0  0
 40 41  1  0  0  0  0
 40 81  1  0  0  0  0
 41 82  1  0  0  0  0
M  CHG  1  32   1
M  END
>  <PARENT_CMPD_ID>
2WF3

>  <STANDARD_TYPE>
IC50

>  <RELATION>
=

>  <STANDARD_VALUE>
0.018999999

>  <STANDARD_UNITS>
uM

>  <COMPOUND_KEY>
11

>  <PUBMED_ID>
19477642

>  <JOURNAL>
Bioorg.Med.Chem.Lett.

>  <YEAR>
2009

>  <VOLUME>
19

>  <FIRST_PAGE>
3669

>  <Company>
GSK

>  <Resolution>
2.0799999

>  <idx>
50

>  <Model>
Train

>  <target>
7.7212462

>  <des_pred_mlr>
7.0272398

>  <RF_Canvas>
7.7349553

>  <DNN_Canvas>
7.5532756

>  <pred_CoMFA>
8.1410999

>  <pred_COMSIA>
7.8197999

>  <pred_abm5>
7.9720969

>  <pred_ff8>
7.9064631

>  <pred_gau6>
8.0585279

>  <CID>
BACE_50

>  <active>
1

>  <des_class_bayes>
1

>  <maacs_class_bayes>
1

>  <radial_class_bayes>
1

>  <dend_class_bayes>
1

>  <molprint_class_bayes>
1

>  <RF_canvas>
1

>  <DNN_canvas>
1

$$$$
3INH_1146
  MOE2015           3D

 47 50  0  0  1  0  0  0  0  0999 V2000
   22.5420   12.0510   25.2170 C   0  0  0  0  0  0  0  0  0  0  0  0
   16.2570    8.8490   21.0510 F   0  0  0  0  0  0  0  0  0  0  0  0
   22.4370   11.3440   23.9500 N   0  0  0  0  0  0  0  0  0  0  0  0
   21.9170   13.1200   22.5390 O   0  0  0  0  0  0  0  0  0  0  0  0
   22.1300   11.9340   22.7550 C   0  0  0  0  0  0  0  0  0  0  0  0
   15.5550   10.9000   20.7880 F   0  0  0  0  0  0  0  0  0  0  0  0
   22.5300    9.6250   22.5170 N   0  0  0  0  0  0  0  0  0  0  0  0
   17.0020   10.0830   19.2770 O   0  0  0  0  0  0  0  0  0  0  0  0
   22.1360   10.8190   21.7020 C   0  0  3  0  0  0  0  0  0  0  0  0
   14.8480    9.3360   19.4240 F   0  0  0  0  0  0  0  0  0  0  0  0
   22.8410    9.1710   24.8160 N   0  0  0  0  0  0  0  0  0  0  0  0
   22.6160   10.0100   23.7570 C   0  0  0  0  0  0  0  0  0  0  0  0
   26.2490   11.8190   17.9560 F   0  0  0  0  0  0  0  0  0  0  0  0
   28.7600   10.0870   21.8590 N   0  0  0  0  0  0  0  0  0  0  0  0
   20.7500   10.6550   21.0560 C   0  0  0  0  0  0  0  0  0  0  0  0
   29.1990   12.2420   20.8890 N   0  0  0  0  0  0  0  0  0  0  0  0
   20.3200    9.4100   20.5780 C   0  0  0  0  0  0  0  0  0  0  0  0
   19.0610    9.2650   19.9920 C   0  0  0  0  0  0  0  0  0  0  0  0
   18.2040   10.3610   19.8670 C   0  0  0  0  0  0  0  0  0  0  0  0
   18.6180   11.6060   20.3350 C   0  0  0  0  0  0  0  0  0  0  0  0
   19.8770   11.7510   20.9230 C   0  0  0  0  0  0  0  0  0  0  0  0
   15.9110    9.7730   20.1300 C   0  0  0  0  0  0  0  0  0  0  0  0
   23.2100   11.0930   20.6460 C   0  0  0  0  0  0  0  0  0  0  0  0
   22.9250   11.3770   19.3040 C   0  0  0  0  0  0  0  0  0  0  0  0
   23.9630   11.6180   18.4070 C   0  0  0  0  0  0  0  0  0  0  0  0
   25.2820   11.5770   18.8480 C   0  0  0  0  0  0  0  0  0  0  0  0
   25.6140   11.2990   20.1800 C   0  0  0  0  0  0  0  0  0  0  0  0
   24.5530   11.0600   21.0630 C   0  0  0  0  0  0  0  0  0  0  0  0
   26.9960   11.2530   20.6650 C   0  0  0  0  0  0  0  0  0  0  0  0
   27.4980   10.1770   21.3900 C   0  0  0  0  0  0  0  0  0  0  0  0
   29.5450   11.1390   21.5760 C   0  0  0  0  0  0  0  0  0  0  0  0
   27.9210   12.2690   20.4490 C   0  0  0  0  0  0  0  0  0  0  0  0
   22.3460   13.1120   25.0590 H   0  0  0  0  0  0  0  0  0  0  0  0
   23.5460   11.9230   25.6220 H   0  0  0  0  0  0  0  0  0  0  0  0
   21.8130   11.6480   25.9200 H   0  0  0  0  0  0  0  0  0  0  0  0
   22.9530    8.1790   24.6600 H   0  0  0  0  0  0  0  0  0  0  0  0
   22.8950    9.5440   25.7530 H   0  0  0  0  0  0  0  0  0  0  0  0
   20.9700    8.5520   20.6640 H   0  0  0  0  0  0  0  0  0  0  0  0
   18.7470    8.2960   19.6320 H   0  0  0  0  0  0  0  0  0  0  0  0
   17.9640   12.4610   20.2430 H   0  0  0  0  0  0  0  0  0  0  0  0
   20.1860   12.7220   21.2820 H   0  0  0  0  0  0  0  0  0  0  0  0
   21.9000   11.4090   18.9650 H   0  0  0  0  0  0  0  0  0  0  0  0
   23.7450   11.8360   17.3720 H   0  0  0  0  0  0  0  0  0  0  0  0
   24.7730   10.8430   22.0980 H   0  0  0  0  0  0  0  0  0  0  0  0
   26.8290    9.3540   21.5920 H   0  0  0  0  0  0  0  0  0  0  0  0
   30.5610   11.0950   21.9380 H   0  0  0  0  0  0  0  0  0  0  0  0
   27.5970   13.1360   19.8930 H   0  0  0  0  0  0  0  0  0  0  0  0
  1  3  1  0  0  0  0
  1 33  1  0  0  0  0
  1 34  1  0  0  0  0
  1 35  1  0  0  0  0
  2 22  1  0  0  0  0
  3  5  1  0  0  0  0
  3 12  1  0  0  0  0
  4  5  2  0  0  0  0
  5  9  1  0  0  0  0
  6 22  1  0  0  0  0
  7  9  1  0  0  0  0
  7 12  2  0  0  0  0
  8 19  1  0  0  0  0
  8 22  1  0  0  0  0
  9 15  1  0  0  0  0
  9 23  1  0  0  0  0
 10 22  1  0  0  0  0
 11 12  1  0  0  0  0
 11 36  1  0  0  0  0
 11 37  1  0  0  0  0
 13 26  1  0  0  0  0
 14 30  2  0  0  0  0
 14 31  1  0  0  0  0
 15 17  1  0  0  0  0
 15 21  2  0  0  0  0
 16 31  2  0  0  0  0
 16 32  1  0  0  0  0
 17 18  2  0  0  0  0
 17 38  1  0  0  0  0
 18 19  1  0  0  0  0
 18 39  1  0  0  0  0
 19 20  2  0  0  0  0
 20 21  1  0  0  0  0
 20 40  1  0  0  0  0
 21 41  1  0  0  0  0
 23 24  1  0  0  0  0
 23 28  2  0  0  0  0
 24 25  2  0  0  0  0
 24 42  1  0  0  0  0
 25 26  1  0  0  0  0
 25 43  1  0  0  0  0
 26 27  2  0  0  0  0
 27 28  1  0  0  0  0
 27 29  1  0  0  0  0
 28 44  1  0  0  0  0
 29 30  1  0  0  0  0
 29 32  2  0  0  0  0
 30 45  1  0  0  0  0
 31 46  1  0  0  0  0
 32 47  1  0  0  0  0
M  END
>  <PARENT_CMPD_ID>
3INH

>  <STANDARD_TYPE>
IC50

>  <RELATION>
=

>  <STANDARD_VALUE>
0.02

>  <STANDARD_UNITS>
uM

>  <COMPOUND_KEY>
R-61

>  <PUBMED_ID>
19968289

>  <JOURNAL>
J.Med.Chem.

>  <YEAR>
2010

>  <VOLUME>
53

>  <FIRST_PAGE>
1146

>  <Company>
Wyeth

>  <Resolution>
1.8

>  <idx>
51

>  <Model>
Train

>  <target>
7.6989698

>  <des_pred_mlr>
6.9923501

>  <RF_Canvas>
7.6335516

>  <DNN_Canvas>
7.4925251

>  <pred_CoMFA>
8.0823002

>  <pred_COMSIA>
6.4228001

>  <pred_abm5>
7.5339174

>  <pred_ff8>
6.1809273

>  <pred_gau6>
7.4905052

>  <CID>
BACE_51

>  <active>
1

>  <des_class_bayes>
1

>  <maacs_class_bayes>
1

>  <radial_class_bayes>
1

>  <dend_class_bayes>
1

>  <molprint_class_bayes>
1

>  <RF_canvas>
1

>  <DNN_canvas>
1

$$$$
3LHG_2326
  MOE2015           3D

 44 47  0  0  1  0  0  0  0  0999 V2000
   23.8920   11.2390   18.2760 C   0  0  0  0  0  0  0  0  0  0  0  0
   29.0060    8.8720   22.5940 F   0  0  0  0  0  0  0  0  0  0  0  0
   18.1340   10.4420   19.8690 N   0  0  0  0  0  0  0  0  0  0  0  0
   22.1510   13.0880   22.4750 O   0  0  0  0  0  0  0  0  0  0  0  0
   25.2260   11.2210   18.7070 C   0  0  0  0  0  0  0  0  0  0  0  0
   27.3820   13.1410   19.5890 F   0  0  0  0  0  0  0  0  0  0  0  0
   22.3920    9.5580   22.4690 N   0  0  0  0  0  0  0  0  0  0  0  0
   22.8490   11.0790   19.1980 C   0  0  0  0  0  0  0  0  0  0  0  0
   22.5030   11.3020   23.8710 N   0  0  0  0  0  0  0  0  0  0  0  0
   29.4830   10.9610   21.5970 C   0  0  0  0  0  0  0  0  0  0  0  0
   22.7120    9.1130   24.7560 N   0  0  0  0  0  0  0  0  0  0  0  0
   29.0640   12.0480   20.8310 C   0  0  0  0  0  0  0  0  0  0  0  0
   19.9370   11.7990   20.7630 C   0  0  0  0  0  0  0  0  0  0  0  0
   20.1580    9.4040   20.6900 C   0  0  0  0  0  0  0  0  0  0  0  0
   24.4860   10.8960   20.9700 C   0  0  0  0  0  0  0  0  0  0  0  0
   27.2920    9.9330   21.3470 C   0  0  0  0  0  0  0  0  0  0  0  0
   18.6790   11.6400   20.1970 C   0  0  0  0  0  0  0  0  0  0  0  0
   18.8890    9.3510   20.1280 C   0  0  0  0  0  0  0  0  0  0  0  0
   25.5220   11.0540   20.0620 C   0  0  0  0  0  0  0  0  0  0  0  0
   26.8780   11.0260   20.5800 C   0  0  0  0  0  0  0  0  0  0  0  0
   23.1640   10.9110   20.5510 C   0  0  0  0  0  0  0  0  0  0  0  0
   20.6780   10.6560   21.0120 C   0  0  0  0  0  0  0  0  0  0  0  0
   28.5970    9.9060   21.8500 C   0  0  0  0  0  0  0  0  0  0  0  0
   27.7620   12.0810   20.3260 C   0  0  0  0  0  0  0  0  0  0  0  0
   22.2280   11.8880   22.6720 C   0  0  0  0  0  0  0  0  0  0  0  0
   22.5290    9.9540   23.6980 C   0  0  0  0  0  0  0  0  0  0  0  0
   22.0850   10.7560   21.6290 C   0  0  3  0  0  0  0  0  0  0  0  0
   22.7100   12.0630   25.1040 C   0  0  0  0  0  0  0  0  0  0  0  0
   23.6670   11.3770   17.2290 H   0  0  0  0  0  0  0  0  0  0  0  0
   26.0260   11.3360   17.9910 H   0  0  0  0  0  0  0  0  0  0  0  0
   21.8200   11.0850   18.8700 H   0  0  0  0  0  0  0  0  0  0  0  0
   30.4870   10.9330   21.9940 H   0  0  0  0  0  0  0  0  0  0  0  0
   22.7480    8.1150   24.6070 H   0  0  0  0  0  0  0  0  0  0  0  0
   22.8120    9.4890   25.6880 H   0  0  0  0  0  0  0  0  0  0  0  0
   29.7440   12.8620   20.6290 H   0  0  0  0  0  0  0  0  0  0  0  0
   20.3240   12.7790   21.0010 H   0  0  0  0  0  0  0  0  0  0  0  0
   20.7240    8.5030   20.8720 H   0  0  0  0  0  0  0  0  0  0  0  0
   24.7120   10.7590   22.0170 H   0  0  0  0  0  0  0  0  0  0  0  0
   26.6120    9.1190   21.5490 H   0  0  0  0  0  0  0  0  0  0  0  0
   18.0960   12.5290   20.0050 H   0  0  0  0  0  0  0  0  0  0  0  0
   18.4810    8.3810   19.8840 H   0  0  0  0  0  0  0  0  0  0  0  0
   22.6210   13.1290   24.8920 H   0  0  0  0  0  0  0  0  0  0  0  0
   23.7040   11.8520   25.4980 H   0  0  0  0  0  0  0  0  0  0  0  0
   21.9590   11.7750   25.8390 H   0  0  0  0  0  0  0  0  0  0  0  0
  1  5  2  0  0  0  0
  1  8  1  0  0  0  0
  1 29  1  0  0  0  0
  2 23  1  0  0  0  0
  3 17  2  0  0  0  0
  3 18  1  0  0  0  0
  4 25  2  0  0  0  0
  5 19  1  0  0  0  0
  5 30  1  0  0  0  0
  6 24  1  0  0  0  0
  7 26  2  0  0  0  0
  7 27  1  0  0  0  0
  8 21  2  0  0  0  0
  8 31  1  0  0  0  0
  9 25  1  0  0  0  0
  9 26  1  0  0  0  0
  9 28  1  0  0  0  0
 10 12  1  0  0  0  0
 10 23  2  0  0  0  0
 10 32  1  0  0  0  0
 11 26  1  0  0  0  0
 11 33  1  0  0  0  0
 11 34  1  0  0  0  0
 12 24  2  0  0  0  0
 12 35  1  0  0  0  0
 13 17  1  0  0  0  0
 13 22  2  0  0  0  0
 13 36  1  0  0  0  0
 14 18  2  0  0  0  0
 14 22  1  0  0  0  0
 14 37  1  0  0  0  0
 15 19  2  0  0  0  0
 15 21  1  0  0  0  0
 15 38  1  0  0  0  0
 16 20  2  0  0  0  0
 16 23  1  0  0  0  0
 16 39  1  0  0  0  0
 17 40  1  0  0  0  0
 18 41  1  0  0  0  0
 19 20  1  0  0  0  0
 20 24  1  0  0  0  0
 21 27  1  0  0  0  0
 22 27  1  0  0  0  0
 25 27  1  0  0  0  0
 28 42  1  0  0  0  0
 28 43  1  0  0  0  0
 28 44  1  0  0  0  0
M  END
>  <PARENT_CMPD_ID>
3LHG

>  <STANDARD_TYPE>
IC50

>  <RELATION>
=

>  <STANDARD_VALUE>
0.02

>  <STANDARD_UNITS>
uM

>  <COMPOUND_KEY>
S-4g

>  <PUBMED_ID>
20202842

>  <JOURNAL>
Bioorg.Med.Chem.Lett.

>  <YEAR>
2010

>  <VOLUME>
20

>  <FIRST_PAGE>
2326

>  <Company>
Wyeth

>  <Resolution>
2.0999999

>  <idx>
52

>  <Model>
Train

>  <target>
7.6989698

>  <des_pred_mlr>
6.23879

>  <RF_Canvas>
7.4705896

>  <DNN_Canvas>
7.2056398

>  <pred_CoMFA>
7.3564

>  <pred_COMSIA>
6.4443998

>  <pred_abm5>
7.4818029

>  <pred_ff8>
5.9831486

>  <pred_gau6>
7.2292399

>  <CID>
BACE_52

>  <active>
1

>  <des_class_bayes>
1

>  <maacs_class_bayes>
1

>  <radial_class_bayes>
1

>  <dend_class_bayes>
1

>  <molprint_class_bayes>
1

>  <RF_canvas>
1

>  <DNN_canvas>
1

$$$$
2WEZ_3664
  MOE2015           3D

 82 86  0  0  1  0  0  0  0  0999 V2000
   27.9980   13.3650   22.5320 C   0  0  0  0  0  0  0  0  0  0  0  0
   26.6940   12.7900   22.5100 C   0  0  0  0  0  0  0  0  0  0  0  0
   25.6610   13.2850   23.4320 C   0  0  0  0  0  0  0  0  0  0  0  0
   25.9920   14.3350   24.3400 C   0  0  0  0  0  0  0  0  0  0  0  0
   27.3150   14.9200   24.3650 C   0  0  0  0  0  0  0  0  0  0  0  0
   28.3710   14.4130   23.4190 C   0  0  0  0  0  0  0  0  0  0  0  0
   24.3110   12.6940   23.3910 C   0  0  0  0  0  0  0  0  0  0  0  0
   24.2640   11.3460   23.1880 N   0  0  0  0  0  0  0  0  0  0  0  0
   23.3180   13.4660   23.3660 O   0  0  0  0  0  0  0  0  0  0  0  0
   23.0360   10.5870   22.8480 C   0  0  3  0  0  0  0  0  0  0  0  0
   23.4370    9.5990   21.7270 C   0  0  0  0  0  0  0  0  0  0  0  0
   22.3480    9.8170   24.0310 C   0  0  3  0  0  0  0  0  0  0  0  0
   21.1830    9.0990   23.6360 O   0  0  0  0  0  0  0  0  0  0  0  0
   24.1710   10.3600   20.6120 C   0  0  0  0  0  0  0  0  0  0  0  0
   21.9410   10.7880   25.1530 C   0  0  0  0  0  0  0  0  0  0  0  0
   21.2750   10.1620   26.3150 N   0  3  0  0  0  0  0  0  0  0  0  0
   20.2980   10.8920   27.2220 C   0  0  0  0  0  0  0  0  0  0  0  0
   25.3990    9.6890   20.1370 C   0  0  0  0  0  0  0  0  0  0  0  0
   26.2390   10.2990   19.0830 C   0  0  0  0  0  0  0  0  0  0  0  0
   25.8610   11.6010   18.4900 C   0  0  0  0  0  0  0  0  0  0  0  0
   24.6250   12.3010   18.9510 C   0  0  0  0  0  0  0  0  0  0  0  0
   23.7770   11.6970   20.0010 C   0  0  0  0  0  0  0  0  0  0  0  0
   29.1180   13.0560   21.7590 N   0  0  0  0  0  0  0  0  0  0  0  0
   27.5080   18.0890   26.3100 C   0  0  0  0  0  0  0  0  0  0  0  0
   28.4720   17.1660   27.0880 C   0  0  0  0  0  0  0  0  0  0  0  0
   28.4500   15.8350   26.3530 C   0  0  0  0  0  0  0  0  0  0  0  0
   27.5930   15.9820   25.3020 N   0  0  0  0  0  0  0  0  0  0  0  0
   26.9590   17.2810   25.1550 C   0  0  0  0  0  0  0  0  0  0  0  0
   29.0890   14.7880   26.6340 O   0  0  0  0  0  0  0  0  0  0  0  0
   30.1270   13.9020   22.1710 C   0  0  0  0  0  0  0  0  0  0  0  0
   29.7140   14.7690   23.2050 C   0  0  0  0  0  0  0  0  0  0  0  0
   29.4110   10.6030   21.2650 C   0  0  0  0  0  0  0  0  0  0  0  0
   29.1790   12.0130   20.7020 C   0  0  0  0  0  0  0  0  0  0  0  0
   17.2000   11.4940   24.8790 C   0  0  0  0  0  0  0  0  0  0  0  0
   17.1820   12.9510   24.8700 C   0  0  0  0  0  0  0  0  0  0  0  0
   18.1500   13.7060   25.6060 C   0  0  0  0  0  0  0  0  0  0  0  0
   19.1620   13.0340   26.3710 C   0  0  0  0  0  0  0  0  0  0  0  0
   19.2150   11.5890   26.4060 C   0  0  0  0  0  0  0  0  0  0  0  0
   18.2370   10.8300   25.6640 C   0  0  0  0  0  0  0  0  0  0  0  0
   16.2740   10.6700   24.1780 O   0  0  0  0  0  0  0  0  0  0  0  0
   16.3280    9.2390   24.2190 C   0  0  0  0  0  0  0  0  0  0  0  0
   26.4650   11.9930   21.8180 H   0  0  0  0  0  0  0  0  0  0  0  0
   25.2390   14.7010   25.0230 H   0  0  0  0  0  0  0  0  0  0  0  0
   25.1270   10.8280   23.2750 H   0  0  0  0  0  0  0  0  0  0  0  0
   22.2770   11.3090   22.5460 H   0  0  0  0  0  0  0  0  0  0  0  0
   22.5420    9.1300   21.3180 H   0  0  0  0  0  0  0  0  0  0  0  0
   24.0940    8.8320   22.1370 H   0  0  0  0  0  0  0  0  0  0  0  0
   23.0940    9.1030   24.3800 H   0  0  0  0  0  0  0  0  0  0  0  0
   20.5360    9.7400   23.3320 H   0  0  0  0  0  0  0  0  0  0  0  0
   21.2590   11.5250   24.7300 H   0  0  0  0  0  0  0  0  0  0  0  0
   22.8410   11.2880   25.5090 H   0  0  0  0  0  0  0  0  0  0  0  0
   22.0190    9.8380   26.9160 H   0  0  0  0  0  0  0  0  0  0  0  0
   20.7690    9.3690   25.9480 H   0  0  0  0  0  0  0  0  0  0  0  0
   20.8400   11.6360   27.8050 H   0  0  0  0  0  0  0  0  0  0  0  0
   19.8310   10.1730   27.8950 H   0  0  0  0  0  0  0  0  0  0  0  0
   25.6870    8.7400   20.5650 H   0  0  0  0  0  0  0  0  0  0  0  0
   27.1310    9.7920   18.7450 H   0  0  0  0  0  0  0  0  0  0  0  0
   26.4790   12.0450   17.7240 H   0  0  0  0  0  0  0  0  0  0  0  0
   23.9920   12.4320   18.0730 H   0  0  0  0  0  0  0  0  0  0  0  0
   24.9370   13.2770   19.3220 H   0  0  0  0  0  0  0  0  0  0  0  0
   23.7270   12.4160   20.8190 H   0  0  0  0  0  0  0  0  0  0  0  0
   22.7840   11.5670   19.5700 H   0  0  0  0  0  0  0  0  0  0  0  0
   28.0450   18.9610   25.9360 H   0  0  0  0  0  0  0  0  0  0  0  0
   26.6950   18.4140   26.9590 H   0  0  0  0  0  0  0  0  0  0  0  0
   28.1300   17.0390   28.1150 H   0  0  0  0  0  0  0  0  0  0  0  0
   29.4790   17.5830   27.0890 H   0  0  0  0  0  0  0  0  0  0  0  0
   27.2260   17.7370   24.2020 H   0  0  0  0  0  0  0  0  0  0  0  0
   25.8750   17.1930   25.2240 H   0  0  0  0  0  0  0  0  0  0  0  0
   31.1210   13.9010   21.7490 H   0  0  0  0  0  0  0  0  0  0  0  0
   30.2930   15.5270   23.7120 H   0  0  0  0  0  0  0  0  0  0  0  0
   29.4460    9.8860   20.4450 H   0  0  0  0  0  0  0  0  0  0  0  0
   28.5960   10.3430   21.9410 H   0  0  0  0  0  0  0  0  0  0  0  0
   30.3550   10.5800   21.8090 H   0  0  0  0  0  0  0  0  0  0  0  0
   29.9960   12.2550   20.0220 H   0  0  0  0  0  0  0  0  0  0  0  0
   28.2370   12.0180   20.1540 H   0  0  0  0  0  0  0  0  0  0  0  0
   16.4260   13.4700   24.2990 H   0  0  0  0  0  0  0  0  0  0  0  0
   18.1190   14.7850   25.5860 H   0  0  0  0  0  0  0  0  0  0  0  0
   19.8880   13.6110   26.9240 H   0  0  0  0  0  0  0  0  0  0  0  0
   18.2730    9.7510   25.6900 H   0  0  0  0  0  0  0  0  0  0  0  0
   15.5230    8.8270   23.6100 H   0  0  0  0  0  0  0  0  0  0  0  0
   16.2140    8.9000   25.2490 H   0  0  0  0  0  0  0  0  0  0  0  0
   17.2880    8.9000   23.8300 H   0  0  0  0  0  0  0  0  0  0  0  0
  1  2  1  0  0  0  0
  1  6  2  0  0  0  0
  1 23  1  0  0  0  0
  2  3  2  0  0  0  0
  2 42  1  0  0  0  0
  3  4  1  0  0  0  0
  3  7  1  0  0  0  0
  4  5  2  0  0  0  0
  4 43  1  0  0  0  0
  5  6  1  0  0  0  0
  5 27  1  0  0  0  0
  6 31  1  0  0  0  0
  7  8  1  0  0  0  0
  7  9  2  0  0  0  0
  8 10  1  0  0  0  0
  8 44  1  0  0  0  0
 10 11  1  0  0  0  0
 10 12  1  0  0  0  0
 10 45  1  0  0  0  0
 11 14  1  0  0  0  0
 11 46  1  0  0  0  0
 11 47  1  0  0  0  0
 12 13  1  0  0  0  0
 12 15  1  0  0  0  0
 12 48  1  0  0  0  0
 13 49  1  0  0  0  0
 14 18  2  0  0  0  0
 14 22  1  0  0  0  0
 15 16  1  0  0  0  0
 15 50  1  0  0  0  0
 15 51  1  0  0  0  0
 16 17  1  0  0  0  0
 16 52  1  0  0  0  0
 16 53  1  0  0  0  0
 17 38  1  0  0  0  0
 17 54  1  0  0  0  0
 17 55  1  0  0  0  0
 18 19  1  0  0  0  0
 18 56  1  0  0  0  0
 19 20  2  0  0  0  0
 19 57  1  0  0  0  0
 20 21  1  0  0  0  0
 20 58  1  0  0  0  0
 21 22  1  0  0  0  0
 21 59  1  0  0  0  0
 21 60  1  0  0  0  0
 22 61  1  0  0  0  0
 22 62  1  0  0  0  0
 23 30  1  0  0  0  0
 23 33  1  0  0  0  0
 24 25  1  0  0  0  0
 24 28  1  0  0  0  0
 24 63  1  0  0  0  0
 24 64  1  0  0  0  0
 25 26  1  0  0  0  0
 25 65  1  0  0  0  0
 25 66  1  0  0  0  0
 26 27  1  0  0  0  0
 26 29  2  0  0  0  0
 27 28  1  0  0  0  0
 28 67  1  0  0  0  0
 28 68  1  0  0  0  0
 30 31  2  0  0  0  0
 30 69  1  0  0  0  0
 31 70  1  0  0  0  0
 32 33  1  0  0  0  0
 32 71  1  0  0  0  0
 32 72  1  0  0  0  0
 32 73  1  0  0  0  0
 33 74  1  0  0  0  0
 33 75  1  0  0  0  0
 34 35  1  0  0  0  0
 34 39  2  0  0  0  0
 34 40  1  0  0  0  0
 35 36  2  0  0  0  0
 35 76  1  0  0  0  0
 36 37  1  0  0  0  0
 36 77  1  0  0  0  0
 37 38  2  0  0  0  0
 37 78  1  0  0  0  0
 38 39  1  0  0  0  0
 39 79  1  0  0  0  0
 40 41  1  0  0  0  0
 41 80  1  0  0  0  0
 41 81  1  0  0  0  0
 41 82  1  0  0  0  0
M  CHG  1  16   1
M  END
>  <PARENT_CMPD_ID>
2WEZ

>  <STANDARD_TYPE>
IC50

>  <RELATION>
=

>  <STANDARD_VALUE>
0.023

>  <STANDARD_UNITS>
uM

>  <COMPOUND_KEY>
17

>  <PUBMED_ID>
19428244

>  <JOURNAL>
Bioorg.Med.Chem.Lett.

>  <YEAR>
2009

>  <VOLUME>
19

>  <FIRST_PAGE>
3664

>  <Company>
GSK

>  <Resolution>
1.7

>  <idx>
53

>  <Model>
Train

>  <target>
7.6382723

>  <des_pred_mlr>
7.2178001

>  <RF_Canvas>
7.5870509

>  <DNN_Canvas>
7.1518369

>  <pred_CoMFA>
7.6156998

>  <pred_COMSIA>
7.5847001

>  <pred_abm5>
7.1218662

>  <pred_ff8>
7.8179603

>  <pred_gau6>
7.151217

>  <CID>
BACE_53

>  <active>
1

>  <des_class_bayes>
1

>  <maacs_class_bayes>
1

>  <radial_class_bayes>
1

>  <dend_class_bayes>
1

>  <molprint_class_bayes>
1

>  <RF_canvas>
1

>  <DNN_canvas>
1

$$$$
3ZMG_3980
  MOE2015           3D

 42 44  0  0  1  0  0  0  0  0999 V2000
   31.3380   10.1230   22.0510 C   0  0  0  0  0  0  0  0  0  0  0  0
   30.3210   10.5440   21.2260 C   0  0  0  0  0  0  0  0  0  0  0  0
   29.0540    9.9760   21.3480 C   0  0  0  0  0  0  0  0  0  0  0  0
   28.7990    9.0670   22.2770 N   0  0  0  0  0  0  0  0  0  0  0  0
   29.7380    8.6810   23.1100 C   0  0  0  0  0  0  0  0  0  0  0  0
   26.6960   10.1080   20.9440 N   0  0  0  0  0  0  0  0  0  0  0  0
   22.9440   11.2190   19.5430 C   0  0  0  0  0  0  0  0  0  0  0  0
   31.0350    9.1780   23.0380 C   0  0  0  0  0  0  0  0  0  0  0  0
   27.9390   10.4410   20.5170 C   0  0  0  0  0  0  0  0  0  0  0  0
   28.1750   11.1110   19.5230 O   0  0  0  0  0  0  0  0  0  0  0  0
   32.0610    8.6850   23.9070 C   0  0  0  0  0  0  0  0  0  0  0  0
   32.8570    8.2690   24.6220 N   0  0  0  0  0  0  0  0  0  0  0  0
   25.4560   10.4610   20.4050 C   0  0  0  0  0  0  0  0  0  0  0  0
   25.2790   10.9840   19.1180 C   0  0  0  0  0  0  0  0  0  0  0  0
   24.0190   11.3500   18.7020 C   0  0  0  0  0  0  0  0  0  0  0  0
   23.1040   10.6950   20.8290 C   0  0  0  0  0  0  0  0  0  0  0  0
   24.3480   10.3530   21.2370 C   0  0  0  0  0  0  0  0  0  0  0  0
   21.7210   11.5770   19.1400 F   0  0  0  0  0  0  0  0  0  0  0  0
   20.7360    9.9030   21.0400 C   0  0  0  0  0  0  0  0  0  0  0  0
   22.7820   11.2340   24.4250 O   0  0  0  0  0  0  0  0  0  0  0  0
   22.6370    9.9900   24.0040 C   0  0  0  0  0  0  0  0  0  0  0  0
   22.2720    9.5930   22.8200 N   0  0  0  0  0  0  0  0  0  0  0  0
   21.5770   11.8790   22.4530 C   0  0  0  0  0  0  0  0  0  0  0  0
   22.6580   12.2790   23.4340 C   0  0  0  0  0  0  0  0  0  0  0  0
   20.3730   11.7860   23.1580 F   0  0  0  0  0  0  0  0  0  0  0  0
   21.4340   12.8860   21.4860 F   0  0  0  0  0  0  0  0  0  0  0  0
   21.9350   10.5430   21.7540 C   0  0  3  0  0  0  0  0  0  0  0  0
   22.9220    9.0830   24.9830 N   0  0  0  0  0  0  0  0  0  0  0  0
   32.3400   10.5100   21.9400 H   0  0  0  0  0  0  0  0  0  0  0  0
   30.5030   11.3110   20.4880 H   0  0  0  0  0  0  0  0  0  0  0  0
   29.4960    7.9560   23.8730 H   0  0  0  0  0  0  0  0  0  0  0  0
   26.6610    9.5230   21.7670 H   0  0  0  0  0  0  0  0  0  0  0  0
   26.1250   11.0990   18.4570 H   0  0  0  0  0  0  0  0  0  0  0  0
   23.8760   11.7430   17.7060 H   0  0  0  0  0  0  0  0  0  0  0  0
   24.4840    9.9840   22.2430 H   0  0  0  0  0  0  0  0  0  0  0  0
   21.0490    8.9710   20.5700 H   0  0  0  0  0  0  0  0  0  0  0  0
   20.3600   10.5860   20.2780 H   0  0  0  0  0  0  0  0  0  0  0  0
   19.9480    9.6980   21.7650 H   0  0  0  0  0  0  0  0  0  0  0  0
   23.6050   12.4030   22.9090 H   0  0  0  0  0  0  0  0  0  0  0  0
   22.3870   13.2170   23.9190 H   0  0  0  0  0  0  0  0  0  0  0  0
   22.8500    8.0940   24.7910 H   0  0  0  0  0  0  0  0  0  0  0  0
   23.2050    9.4010   25.8990 H   0  0  0  0  0  0  0  0  0  0  0  0
  1  2  1  0  0  0  0
  1  8  2  0  0  0  0
  1 29  1  0  0  0  0
  2  3  2  0  0  0  0
  2 30  1  0  0  0  0
  3  4  1  0  0  0  0
  3  9  1  0  0  0  0
  4  5  2  0  0  0  0
  5  8  1  0  0  0  0
  5 31  1  0  0  0  0
  6  9  1  0  0  0  0
  6 13  1  0  0  0  0
  6 32  1  0  0  0  0
  7 15  2  0  0  0  0
  7 16  1  0  0  0  0
  7 18  1  0  0  0  0
  8 11  1  0  0  0  0
  9 10  2  0  0  0  0
 11 12  3  0  0  0  0
 13 14  2  0  0  0  0
 13 17  1  0  0  0  0
 14 15  1  0  0  0  0
 14 33  1  0  0  0  0
 15 34  1  0  0  0  0
 16 17  2  0  0  0  0
 16 27  1  0  0  0  0
 17 35  1  0  0  0  0
 19 27  1  0  0  0  0
 19 36  1  0  0  0  0
 19 37  1  0  0  0  0
 19 38  1  0  0  0  0
 20 21  1  0  0  0  0
 20 24  1  0  0  0  0
 21 22  2  0  0  0  0
 21 28  1  0  0  0  0
 22 27  1  0  0  0  0
 23 24  1  0  0  0  0
 23 25  1  0  0  0  0
 23 26  1  0  0  0  0
 23 27  1  0  0  0  0
 24 39  1  0  0  0  0
 24 40  1  0  0  0  0
 28 41  1  0  0  0  0
 28 42  1  0  0  0  0
M  END
>  <PARENT_CMPD_ID>
3ZMG

>  <STANDARD_TYPE>
IC50

>  <RELATION>
=

>  <STANDARD_VALUE>
0.023

>  <STANDARD_UNITS>
uM

>  <COMPOUND_KEY>
14d

>  <PUBMED_ID>
23590342

>  <JOURNAL>
J.Med.Chem.

>  <YEAR>
2013

>  <VOLUME>
56

>  <FIRST_PAGE>
3980

>  <Company>
Roche

>  <Resolution>
1.74

>  <idx>
54

>  <Model>
Train

>  <target>
7.6382723

>  <des_pred_mlr>
6.8425698

>  <RF_Canvas>
7.3350153

>  <DNN_Canvas>
7.407186

>  <pred_CoMFA>
7.1262999

>  <pred_COMSIA>
6.6844001

>  <pred_abm5>
7.139895

>  <pred_ff8>
7.8739982

>  <pred_gau6>
7.3317771

>  <CID>
BACE_54

>  <active>
1

>  <des_class_bayes>
1

>  <maacs_class_bayes>
1

>  <radial_class_bayes>
1

>  <dend_class_bayes>
1

>  <molprint_class_bayes>
1

>  <RF_canvas>
1

>  <DNN_canvas>
1

$$$$
4JP9_3379
  MOE2015           3D

 46 49  0  0  1  0  0  0  0  0999 V2000
   25.2810   10.8810   20.0050 C   0  0  0  0  0  0  0  0  0  0  0  0
   24.8360   10.9700   18.6600 C   0  0  0  0  0  0  0  0  0  0  0  0
   23.4500   11.0070   18.3650 C   0  0  0  0  0  0  0  0  0  0  0  0
   22.5020   10.9580   19.4140 C   0  0  0  0  0  0  0  0  0  0  0  0
   22.9410   10.8660   20.7590 C   0  0  0  0  0  0  0  0  0  0  0  0
   24.3270   10.8320   21.0530 C   0  0  0  0  0  0  0  0  0  0  0  0
   21.1590   10.9880   19.1060 O   0  0  0  0  0  0  0  0  0  0  0  0
   20.1620   10.5330   20.0270 C   0  0  0  0  0  0  0  0  0  0  0  0
   20.4690   11.1050   21.4270 C   0  0  0  0  0  0  0  0  0  0  0  0
   21.9190   10.8440   21.8960 C   0  0  3  0  0  0  0  0  0  0  0  0
   26.6610   10.8670   20.3140 C   0  0  0  0  0  0  0  0  0  0  0  0
   18.8060   11.0670   19.5270 C   0  0  0  0  0  0  0  0  0  0  0  0
   20.1480    8.9840   20.0400 C   0  0  0  0  0  0  0  0  0  0  0  0
   22.3290   11.9060   22.9280 C   0  0  0  0  0  0  0  0  0  0  0  0
   22.6220   11.2770   24.0850 N   0  0  0  0  0  0  0  0  0  0  0  0
   22.4130    9.9420   23.8910 C   0  0  0  0  0  0  0  0  0  0  0  0
   22.0180    9.6370   22.7010 N   0  0  0  0  0  0  0  0  0  0  0  0
   22.6470    9.0550   24.9200 N   0  0  0  0  0  0  0  0  0  0  0  0
   22.4640   13.1060   22.6680 O   0  0  0  0  0  0  0  0  0  0  0  0
   23.0850   11.9500   25.2990 C   0  0  0  0  0  0  0  0  0  0  0  0
   27.1440   10.1020   21.4030 C   0  0  0  0  0  0  0  0  0  0  0  0
   28.5240   10.1270   21.7220 C   0  0  0  0  0  0  0  0  0  0  0  0
   29.4300   10.9110   20.9620 C   0  0  0  0  0  0  0  0  0  0  0  0
   28.9470   11.6810   19.8750 C   0  0  0  0  0  0  0  0  0  0  0  0
   27.5650   11.6630   19.5570 C   0  0  0  0  0  0  0  0  0  0  0  0
   29.0860    9.1930   23.0480 Cl  0  0  0  0  0  0  0  0  0  0  0  0
   25.5570   11.0100   17.8570 H   0  0  0  0  0  0  0  0  0  0  0  0
   23.1180   11.0730   17.3390 H   0  0  0  0  0  0  0  0  0  0  0  0
   24.6580   10.7690   22.0790 H   0  0  0  0  0  0  0  0  0  0  0  0
   19.7870   10.6470   22.1440 H   0  0  0  0  0  0  0  0  0  0  0  0
   20.3030   12.1820   21.4040 H   0  0  0  0  0  0  0  0  0  0  0  0
   18.8250   12.1570   19.5210 H   0  0  0  0  0  0  0  0  0  0  0  0
   18.0130   10.7210   20.1890 H   0  0  0  0  0  0  0  0  0  0  0  0
   18.6220   10.7010   18.5170 H   0  0  0  0  0  0  0  0  0  0  0  0
   21.1100    8.6150   20.3950 H   0  0  0  0  0  0  0  0  0  0  0  0
   19.9660    8.6140   19.0310 H   0  0  0  0  0  0  0  0  0  0  0  0
   19.3570    8.6330   20.7030 H   0  0  0  0  0  0  0  0  0  0  0  0
   22.5100    8.0650   24.7740 H   0  0  0  0  0  0  0  0  0  0  0  0
   22.9560    9.3950   25.8190 H   0  0  0  0  0  0  0  0  0  0  0  0
   23.1450   13.0230   25.1190 H   0  0  0  0  0  0  0  0  0  0  0  0
   24.0700   11.5710   25.5710 H   0  0  0  0  0  0  0  0  0  0  0  0
   22.3840   11.7570   26.1110 H   0  0  0  0  0  0  0  0  0  0  0  0
   26.4630    9.5020   21.9880 H   0  0  0  0  0  0  0  0  0  0  0  0
   30.4810   10.9210   21.2100 H   0  0  0  0  0  0  0  0  0  0  0  0
   29.6290   12.2800   19.2900 H   0  0  0  0  0  0  0  0  0  0  0  0
   27.1960   12.2580   18.7340 H   0  0  0  0  0  0  0  0  0  0  0  0
  1  2  1  0  0  0  0
  1  6  2  0  0  0  0
  1 11  1  0  0  0  0
  2  3  2  0  0  0  0
  2 27  1  0  0  0  0
  3  4  1  0  0  0  0
  3 28  1  0  0  0  0
  4  5  2  0  0  0  0
  4  7  1  0  0  0  0
  5  6  1  0  0  0  0
  5 10  1  0  0  0  0
  6 29  1  0  0  0  0
  7  8  1  0  0  0  0
  8  9  1  0  0  0  0
  8 12  1  0  0  0  0
  8 13  1  0  0  0  0
  9 10  1  0  0  0  0
  9 30  1  0  0  0  0
  9 31  1  0  0  0  0
 10 14  1  0  0  0  0
 10 17  1  0  0  0  0
 11 21  1  0  0  0  0
 11 25  2  0  0  0  0
 12 32  1  0  0  0  0
 12 33  1  0  0  0  0
 12 34  1  0  0  0  0
 13 35  1  0  0  0  0
 13 36  1  0  0  0  0
 13 37  1  0  0  0  0
 14 15  1  0  0  0  0
 14 19  2  0  0  0  0
 15 16  1  0  0  0  0
 15 20  1  0  0  0  0
 16 17  2  0  0  0  0
 16 18  1  0  0  0  0
 18 38  1  0  0  0  0
 18 39  1  0  0  0  0
 20 40  1  0  0  0  0
 20 41  1  0  0  0  0
 20 42  1  0  0  0  0
 21 22  2  0  0  0  0
 21 43  1  0  0  0  0
 22 23  1  0  0  0  0
 22 26  1  0  0  0  0
 23 24  2  0  0  0  0
 23 44  1  0  0  0  0
 24 25  1  0  0  0  0
 24 45  1  0  0  0  0
 25 46  1  0  0  0  0
M  END
>  <PARENT_CMPD_ID>
4JP9

>  <STANDARD_TYPE>
IC50

>  <RELATION>
=

>  <STANDARD_VALUE>
0.024

>  <STANDARD_UNITS>
uM

>  <COMPOUND_KEY>
12

>  <PUBMED_ID>
23537249

>  <JOURNAL>
J.Med.Chem.

>  <YEAR>
2013

>  <VOLUME>
56

>  <FIRST_PAGE>
3379

>  <Company>
Array

>  <Resolution>
1.8

>  <idx>
55

>  <Model>
Train

>  <target>
7.6197886

>  <des_pred_mlr>
6.3967099

>  <RF_Canvas>
7.3478746

>  <DNN_Canvas>
7.2098608

>  <pred_CoMFA>
7.1592002

>  <pred_COMSIA>
6.6508002

>  <pred_abm5>
6.9593558

>  <pred_ff8>
5.978447

>  <pred_gau6>
7.0296497

>  <CID>
BACE_55

>  <active>
1

>  <des_class_bayes>
0

>  <maacs_class_bayes>
0

>  <radial_class_bayes>
1

>  <dend_class_bayes>
1

>  <molprint_class_bayes>
0

>  <RF_canvas>
1

>  <DNN_canvas>
1

$$$$
2WF2_3669
  MOE2015           3D

 85 89  0  0  1  0  0  0  0  0999 V2000
   24.2280   12.9100   23.5580 C   0  0  0  0  0  0  0  0  0  0  0  0
   24.3150   11.5670   23.3430 N   0  0  0  0  0  0  0  0  0  0  0  0
   23.1150   10.7850   23.0200 C   0  0  3  0  0  0  0  0  0  0  0  0
   22.4750   10.0660   24.2270 C   0  0  3  0  0  0  0  0  0  0  0  0
   23.4690    9.8100   21.8570 C   0  0  0  0  0  0  0  0  0  0  0  0
   21.7740   11.0490   25.1530 C   0  0  0  0  0  0  0  0  0  0  0  0
   23.1470   13.5030   23.5550 O   0  0  0  0  0  0  0  0  0  0  0  0
   25.5000   13.6240   23.5980 C   0  0  0  0  0  0  0  0  0  0  0  0
   25.6990   14.6650   24.5160 C   0  0  0  0  0  0  0  0  0  0  0  0
   26.9140   15.3970   24.5350 C   0  0  0  0  0  0  0  0  0  0  0  0
   27.9820   15.0830   23.5890 C   0  0  0  0  0  0  0  0  0  0  0  0
   27.7870   13.9920   22.6610 C   0  0  0  0  0  0  0  0  0  0  0  0
   26.5250   13.2790   22.6820 C   0  0  0  0  0  0  0  0  0  0  0  0
   24.1740   10.4980   20.6770 C   0  0  0  0  0  0  0  0  0  0  0  0
   25.3050    9.8140   20.1050 C   0  0  0  0  0  0  0  0  0  0  0  0
   26.0240   10.4050   19.0140 C   0  0  0  0  0  0  0  0  0  0  0  0
   25.6060   11.6790   18.5080 C   0  0  0  0  0  0  0  0  0  0  0  0
   24.4800   12.3740   19.0700 C   0  0  0  0  0  0  0  0  0  0  0  0
   23.7600   11.7850   20.1570 C   0  0  0  0  0  0  0  0  0  0  0  0
   21.1710   10.2980   26.2900 N   0  3  0  0  0  0  0  0  0  0  0  0
   21.4550    9.1580   23.7980 O   0  0  0  0  0  0  0  0  0  0  0  0
   20.4080   11.2150   27.1740 C   0  0  0  0  0  0  0  0  0  0  0  0
   19.2320   11.8420   26.4250 C   0  0  0  0  0  0  0  0  0  0  0  0
   18.3490   11.0120   25.6500 C   0  0  0  0  0  0  0  0  0  0  0  0
   17.2550   11.6160   24.9280 C   0  0  0  0  0  0  0  0  0  0  0  0
   17.0710   13.0330   25.0010 C   0  0  0  0  0  0  0  0  0  0  0  0
   17.9410   13.8610   25.7720 C   0  0  0  0  0  0  0  0  0  0  0  0
   19.0230   13.2540   26.4820 C   0  0  0  0  0  0  0  0  0  0  0  0
   16.3320   10.9170   24.1380 O   0  0  0  0  0  0  0  0  0  0  0  0
   16.4450    9.4900   24.0120 C   0  0  0  0  0  0  0  0  0  0  0  0
   29.1770   15.8430   23.4760 N   0  0  0  0  0  0  0  0  0  0  0  0
   30.1250   14.2830   21.6970 C   0  0  0  0  0  0  0  0  0  0  0  0
   28.7940   13.6150   21.7410 N   0  0  0  0  0  0  0  0  0  0  0  0
   27.0940   16.2350   25.6730 N   0  0  0  0  0  0  0  0  0  0  0  0
   28.5800   16.1490   26.5640 S   0  0  0  0  0  0  0  0  0  0  0  0
   29.7900   17.0610   25.6550 C   0  0  0  0  0  0  0  0  0  0  0  0
   29.4160   17.1250   24.1780 C   0  0  0  0  0  0  0  0  0  0  0  0
   28.6420   12.5130   20.7730 C   0  0  0  0  0  0  0  0  0  0  0  0
   29.2510   11.2190   21.3510 C   0  0  0  0  0  0  0  0  0  0  0  0
   26.1720   17.4070   25.7710 C   0  0  0  0  0  0  0  0  0  0  0  0
   28.9640   14.7640   26.5820 O   0  0  0  0  0  0  0  0  0  0  0  0
   28.3060   16.8150   27.8120 O   0  0  0  0  0  0  0  0  0  0  0  0
   30.2600   15.5580   22.5220 C   0  0  0  0  0  0  0  0  0  0  0  0
   25.2120   11.1060   23.4060 H   0  0  0  0  0  0  0  0  0  0  0  0
   22.3350   11.4770   22.7030 H   0  0  0  0  0  0  0  0  0  0  0  0
   23.2910    9.5530   24.7360 H   0  0  0  0  0  0  0  0  0  0  0  0
   22.5470    9.3580   21.4920 H   0  0  0  0  0  0  0  0  0  0  0  0
   24.1260    9.0320   22.2460 H   0  0  0  0  0  0  0  0  0  0  0  0
   20.9910   11.5730   24.6050 H   0  0  0  0  0  0  0  0  0  0  0  0
   22.4960   11.7710   25.5340 H   0  0  0  0  0  0  0  0  0  0  0  0
   24.9170   14.9130   25.2180 H   0  0  0  0  0  0  0  0  0  0  0  0
   26.3630   12.4690   21.9860 H   0  0  0  0  0  0  0  0  0  0  0  0
   25.6120    8.8560   20.4980 H   0  0  0  0  0  0  0  0  0  0  0  0
   26.8710    9.8960   18.5790 H   0  0  0  0  0  0  0  0  0  0  0  0
   26.1480   12.1260   17.6880 H   0  0  0  0  0  0  0  0  0  0  0  0
   24.1800   13.3330   18.6750 H   0  0  0  0  0  0  0  0  0  0  0  0
   22.9120   12.2970   20.5880 H   0  0  0  0  0  0  0  0  0  0  0  0
   21.9060    9.8570   26.8240 H   0  0  0  0  0  0  0  0  0  0  0  0
   20.5480    9.5910   25.9280 H   0  0  0  0  0  0  0  0  0  0  0  0
   20.7730    9.6730   23.3610 H   0  0  0  0  0  0  0  0  0  0  0  0
   21.0710   12.0060   27.5240 H   0  0  0  0  0  0  0  0  0  0  0  0
   20.0290   10.6540   28.0280 H   0  0  0  0  0  0  0  0  0  0  0  0
   18.5040    9.9440   25.6090 H   0  0  0  0  0  0  0  0  0  0  0  0
   16.2540   13.4870   24.4600 H   0  0  0  0  0  0  0  0  0  0  0  0
   17.7840   14.9290   25.8180 H   0  0  0  0  0  0  0  0  0  0  0  0
   19.6900   13.8690   27.0680 H   0  0  0  0  0  0  0  0  0  0  0  0
   15.6500    9.1180   23.3660 H   0  0  0  0  0  0  0  0  0  0  0  0
   16.3580    9.0300   24.9960 H   0  0  0  0  0  0  0  0  0  0  0  0
   17.4130    9.2390   23.5780 H   0  0  0  0  0  0  0  0  0  0  0  0
   30.3380   14.5340   20.6580 H   0  0  0  0  0  0  0  0  0  0  0  0
   30.8670   13.5720   22.0590 H   0  0  0  0  0  0  0  0  0  0  0  0
   30.7590   16.5730   25.7580 H   0  0  0  0  0  0  0  0  0  0  0  0
   29.8490   18.0740   26.0540 H   0  0  0  0  0  0  0  0  0  0  0  0
   28.5040   17.7160   24.0980 H   0  0  0  0  0  0  0  0  0  0  0  0
   30.2270   17.6360   23.6580 H   0  0  0  0  0  0  0  0  0  0  0  0
   29.1550   12.7720   19.8470 H   0  0  0  0  0  0  0  0  0  0  0  0
   27.5830   12.3540   20.5690 H   0  0  0  0  0  0  0  0  0  0  0  0
   30.3100   11.3760   21.5550 H   0  0  0  0  0  0  0  0  0  0  0  0
   29.1360   10.4100   20.6300 H   0  0  0  0  0  0  0  0  0  0  0  0
   28.7370   10.9570   22.2760 H   0  0  0  0  0  0  0  0  0  0  0  0
   25.3070   17.2440   25.1280 H   0  0  0  0  0  0  0  0  0  0  0  0
   26.6960   18.3090   25.4530 H   0  0  0  0  0  0  0  0  0  0  0  0
   25.8410   17.5240   26.8030 H   0  0  0  0  0  0  0  0  0  0  0  0
   31.1890   15.4890   23.0880 H   0  0  0  0  0  0  0  0  0  0  0  0
   30.3180   16.3960   21.8280 H   0  0  0  0  0  0  0  0  0  0  0  0
  1  2  1  0  0  0  0
  1  7  2  0  0  0  0
  1  8  1  0  0  0  0
  2  3  1  0  0  0  0
  2 44  1  0  0  0  0
  3  4  1  0  0  0  0
  3  5  1  0  0  0  0
  3 45  1  0  0  0  0
  4  6  1  0  0  0  0
  4 21  1  0  0  0  0
  4 46  1  0  0  0  0
  5 14  1  0  0  0  0
  5 47  1  0  0  0  0
  5 48  1  0  0  0  0
  6 20  1  0  0  0  0
  6 49  1  0  0  0  0
  6 50  1  0  0  0  0
  8  9  1  0  0  0  0
  8 13  2  0  0  0  0
  9 10  2  0  0  0  0
  9 51  1  0  0  0  0
 10 11  1  0  0  0  0
 10 34  1  0  0  0  0
 11 12  2  0  0  0  0
 11 31  1  0  0  0  0
 12 13  1  0  0  0  0
 12 33  1  0  0  0  0
 13 52  1  0  0  0  0
 14 15  1  0  0  0  0
 14 19  2  0  0  0  0
 15 16  2  0  0  0  0
 15 53  1  0  0  0  0
 16 17  1  0  0  0  0
 16 54  1  0  0  0  0
 17 18  2  0  0  0  0
 17 55  1  0  0  0  0
 18 19  1  0  0  0  0
 18 56  1  0  0  0  0
 19 57  1  0  0  0  0
 20 22  1  0  0  0  0
 20 58  1  0  0  0  0
 20 59  1  0  0  0  0
 21 60  1  0  0  0  0
 22 23  1  0  0  0  0
 22 61  1  0  0  0  0
 22 62  1  0  0  0  0
 23 24  1  0  0  0  0
 23 28  2  0  0  0  0
 24 25  2  0  0  0  0
 24 63  1  0  0  0  0
 25 26  1  0  0  0  0
 25 29  1  0  0  0  0
 26 27  2  0  0  0  0
 26 64  1  0  0  0  0
 27 28  1  0  0  0  0
 27 65  1  0  0  0  0
 28 66  1  0  0  0  0
 29 30  1  0  0  0  0
 30 67  1  0  0  0  0
 30 68  1  0  0  0  0
 30 69  1  0  0  0  0
 31 37  1  0  0  0  0
 31 43  1  0  0  0  0
 32 33  1  0  0  0  0
 32 43  1  0  0  0  0
 32 70  1  0  0  0  0
 32 71  1  0  0  0  0
 33 38  1  0  0  0  0
 34 35  1  0  0  0  0
 34 40  1  0  0  0  0
 35 36  1  0  0  0  0
 35 41  2  0  0  0  0
 35 42  2  0  0  0  0
 36 37  1  0  0  0  0
 36 72  1  0  0  0  0
 36 73  1  0  0  0  0
 37 74  1  0  0  0  0
 37 75  1  0  0  0  0
 38 39  1  0  0  0  0
 38 76  1  0  0  0  0
 38 77  1  0  0  0  0
 39 78  1  0  0  0  0
 39 79  1  0  0  0  0
 39 80  1  0  0  0  0
 40 81  1  0  0  0  0
 40 82  1  0  0  0  0
 40 83  1  0  0  0  0
 43 84  1  0  0  0  0
 43 85  1  0  0  0  0
M  CHG  1  20   1
M  END
>  <PARENT_CMPD_ID>
2WF2

>  <STANDARD_TYPE>
IC50

>  <RELATION>
=

>  <STANDARD_VALUE>
0.026000001

>  <STANDARD_UNITS>
uM

>  <COMPOUND_KEY>
10

>  <PUBMED_ID>
19477642

>  <JOURNAL>
Bioorg.Med.Chem.Lett.

>  <YEAR>
2009

>  <VOLUME>
19

>  <FIRST_PAGE>
3669

>  <Company>
GSK

>  <Resolution>
1.8

>  <idx>
56

>  <Model>
Train

>  <target>
7.5850267

>  <des_pred_mlr>
7.06741

>  <RF_Canvas>
7.6853757

>  <DNN_Canvas>
7.6612425

>  <pred_CoMFA>
7.8627

>  <pred_COMSIA>
7.9144001

>  <pred_abm5>
7.9235883

>  <pred_ff8>
7.8372169

>  <pred_gau6>
8.2307768

>  <CID>
BACE_56

>  <active>
1

>  <des_class_bayes>
1

>  <maacs_class_bayes>
1

>  <radial_class_bayes>
1

>  <dend_class_bayes>
1

>  <molprint_class_bayes>
1

>  <RF_canvas>
1

>  <DNN_canvas>
1

$$$$
3L5E_951
  MOE2015           3D

 88 92  0  0  1  0  0  0  0  0999 V2000
   20.3470   10.8870   22.0080 C   0  0  3  0  0  0  0  0  0  0  0  0
   21.0260    9.7710   22.6680 N   0  0  0  0  0  0  0  0  0  0  0  0
   21.0480    8.8110   22.3550 H   0  0  0  0  0  0  0  0  0  0  0  0
   20.2880   13.2200   22.7770 O   0  0  0  0  0  0  0  0  0  0  0  0
   21.6220   10.2740   23.7840 C   0  0  0  0  0  0  0  0  0  0  0  0
   21.4180   11.5980   23.9550 N   0  0  0  0  0  0  0  0  0  0  0  0
   28.4740   14.4550   24.7430 O   0  0  0  0  0  0  0  0  0  0  0  0
   20.6650   12.0640   22.9430 C   0  0  0  0  0  0  0  0  0  0  0  0
   22.3460    9.5500   24.6460 N   0  0  0  0  0  0  0  0  0  0  0  0
   22.4790    8.5610   24.4880 H   0  0  0  0  0  0  0  0  0  0  0  0
   20.9180   11.1270   20.5880 C   0  0  0  0  0  0  0  0  0  0  0  0
   27.5370   15.0610   22.7630 N   0  0  0  0  0  0  0  0  0  0  0  0
   18.8330   10.6660   21.9340 C   0  0  0  0  0  0  0  0  0  0  0  0
   29.3520   13.8200   22.7360 N   0  0  0  0  0  0  0  0  0  0  0  0
   22.3870   11.5800   20.5360 C   0  0  0  0  0  0  0  0  0  0  0  0
   21.9370   12.4150   25.0590 C   0  0  0  0  0  0  0  0  0  0  0  0
   23.0820   13.2950   24.6000 C   0  0  0  0  0  0  0  0  0  0  0  0
   22.9760   14.7140   24.6730 C   0  0  0  0  0  0  0  0  0  0  0  0
   24.0590   15.5380   24.2370 C   0  0  0  0  0  0  0  0  0  0  0  0
   25.2520   14.9460   23.7260 C   0  0  0  0  0  0  0  0  0  0  0  0
   25.3490   13.5210   23.6560 C   0  0  0  0  0  0  0  0  0  0  0  0
   24.2720   12.7010   24.0900 C   0  0  0  0  0  0  0  0  0  0  0  0
   23.3360   10.4030   20.7660 C   0  0  0  0  0  0  0  0  0  0  0  0
   24.7960   10.7240   20.4620 C   0  0  0  0  0  0  0  0  0  0  0  0
   24.9600   11.2420   19.0450 C   0  0  0  0  0  0  0  0  0  0  0  0
   24.1390   12.5040   18.8620 C   0  0  0  0  0  0  0  0  0  0  0  0
   22.6670   12.2530   19.1830 C   0  0  0  0  0  0  0  0  0  0  0  0
   18.1750   10.6840   23.3010 C   0  0  0  0  0  0  0  0  0  0  0  0
   26.4000   15.8400   23.2670 C   0  0  0  0  0  0  0  0  0  0  0  0
   27.7150   14.9140   21.3320 C   0  0  0  0  0  0  0  0  0  0  0  0
   28.9830   14.0280   21.3240 C   0  0  3  0  0  0  0  0  0  0  0  0
   28.4600   14.4450   23.5110 C   0  0  0  0  0  0  0  0  0  0  0  0
   28.6160   12.6810   20.6720 C   0  0  0  0  0  0  0  0  0  0  0  0
   29.1970   11.4300   21.2870 C   0  0  0  0  0  0  0  0  0  0  0  0
   28.5700   10.1590   20.6830 C   0  0  0  0  0  0  0  0  0  0  0  0
   16.7170   10.2260   23.2770 C   0  0  0  0  0  0  0  0  0  0  0  0
   16.1830   10.1010   24.6990 C   0  0  0  0  0  0  0  0  0  0  0  0
   14.7050    9.7250   24.7480 C   0  0  0  0  0  0  0  0  0  0  0  0
   13.8560   10.7110   23.9440 C   0  0  0  0  0  0  0  0  0  0  0  0
   14.3560   10.8830   22.5120 C   0  0  0  0  0  0  0  0  0  0  0  0
   15.8540   11.1840   22.4490 C   0  0  0  0  0  0  0  0  0  0  0  0
   20.3120   11.8950   20.1070 H   0  0  0  0  0  0  0  0  0  0  0  0
   20.8330   10.1950   20.0290 H   0  0  0  0  0  0  0  0  0  0  0  0
   18.6430    9.6990   21.4680 H   0  0  0  0  0  0  0  0  0  0  0  0
   18.3940   11.4560   21.3240 H   0  0  0  0  0  0  0  0  0  0  0  0
   30.1480   13.2920   23.0640 H   0  0  0  0  0  0  0  0  0  0  0  0
   22.5620   12.3000   21.3360 H   0  0  0  0  0  0  0  0  0  0  0  0
   22.2910   11.7570   25.8520 H   0  0  0  0  0  0  0  0  0  0  0  0
   21.1350   13.0460   25.4410 H   0  0  0  0  0  0  0  0  0  0  0  0
   22.0750   15.1680   25.0590 H   0  0  0  0  0  0  0  0  0  0  0  0
   23.9740   16.6130   24.2950 H   0  0  0  0  0  0  0  0  0  0  0  0
   26.2480   13.0640   23.2700 H   0  0  0  0  0  0  0  0  0  0  0  0
   24.3560   11.6260   24.0330 H   0  0  0  0  0  0  0  0  0  0  0  0
   23.0240    9.5790   20.1240 H   0  0  0  0  0  0  0  0  0  0  0  0
   23.2610   10.0990   21.8100 H   0  0  0  0  0  0  0  0  0  0  0  0
   25.3910    9.8190   20.5810 H   0  0  0  0  0  0  0  0  0  0  0  0
   25.1460   11.4830   21.1610 H   0  0  0  0  0  0  0  0  0  0  0  0
   24.6190   10.4830   18.3400 H   0  0  0  0  0  0  0  0  0  0  0  0
   26.0110   11.4640   18.8600 H   0  0  0  0  0  0  0  0  0  0  0  0
   24.2260   12.8390   17.8280 H   0  0  0  0  0  0  0  0  0  0  0  0
   24.5220   13.2780   19.5280 H   0  0  0  0  0  0  0  0  0  0  0  0
   22.1530   13.2140   19.1740 H   0  0  0  0  0  0  0  0  0  0  0  0
   22.2570   11.6150   18.4000 H   0  0  0  0  0  0  0  0  0  0  0  0
   18.2110   11.7020   23.6890 H   0  0  0  0  0  0  0  0  0  0  0  0
   18.7340   10.0230   23.9630 H   0  0  0  0  0  0  0  0  0  0  0  0
   26.0410   16.4930   22.4720 H   0  0  0  0  0  0  0  0  0  0  0  0
   26.7340   16.4440   24.1100 H   0  0  0  0  0  0  0  0  0  0  0  0
   27.8860   15.8730   20.8430 H   0  0  0  0  0  0  0  0  0  0  0  0
   26.8660   14.4140   20.8660 H   0  0  0  0  0  0  0  0  0  0  0  0
   29.8080   14.4800   20.7730 H   0  0  0  0  0  0  0  0  0  0  0  0
   28.9470   12.7190   19.6340 H   0  0  0  0  0  0  0  0  0  0  0  0
   27.5310   12.5870   20.7040 H   0  0  0  0  0  0  0  0  0  0  0  0
   29.0080   11.4420   22.3600 H   0  0  0  0  0  0  0  0  0  0  0  0
   30.2720   11.4140   21.1080 H   0  0  0  0  0  0  0  0  0  0  0  0
   27.4940   10.1660   20.8570 H   0  0  0  0  0  0  0  0  0  0  0  0
   29.0080    9.2790   21.1530 H   0  0  0  0  0  0  0  0  0  0  0  0
   28.7640   10.1320   19.6110 H   0  0  0  0  0  0  0  0  0  0  0  0
   16.6700    9.2460   22.8020 H   0  0  0  0  0  0  0  0  0  0  0  0
   16.3160   11.0570   25.2050 H   0  0  0  0  0  0  0  0  0  0  0  0
   16.7550    9.3320   25.2190 H   0  0  0  0  0  0  0  0  0  0  0  0
   14.3710    9.7320   25.7850 H   0  0  0  0  0  0  0  0  0  0  0  0
   14.5790    8.7250   24.3320 H   0  0  0  0  0  0  0  0  0  0  0  0
   13.8810   11.6800   24.4420 H   0  0  0  0  0  0  0  0  0  0  0  0
   12.8300   10.3450   23.9140 H   0  0  0  0  0  0  0  0  0  0  0  0
   13.8140   11.7070   22.0490 H   0  0  0  0  0  0  0  0  0  0  0  0
   14.1600    9.9640   21.9600 H   0  0  0  0  0  0  0  0  0  0  0  0
   16.1730   11.1210   21.4090 H   0  0  0  0  0  0  0  0  0  0  0  0
   16.0160   12.1970   22.8180 H   0  0  0  0  0  0  0  0  0  0  0  0
  1  2  1  0  0  0  0
  1  8  1  0  0  0  0
  1 11  1  0  0  0  0
  1 13  1  0  0  0  0
  2  3  1  0  0  0  0
  2  5  1  0  0  0  0
  4  8  2  0  0  0  0
  5  6  1  0  0  0  0
  5  9  2  0  0  0  0
  6  8  1  0  0  0  0
  6 16  1  0  0  0  0
  7 32  2  0  0  0  0
  9 10  1  0  0  0  0
 11 15  1  0  0  0  0
 11 42  1  0  0  0  0
 11 43  1  0  0  0  0
 12 29  1  0  0  0  0
 12 30  1  0  0  0  0
 12 32  1  0  0  0  0
 13 28  1  0  0  0  0
 13 44  1  0  0  0  0
 13 45  1  0  0  0  0
 14 31  1  0  0  0  0
 14 32  1  0  0  0  0
 14 46  1  0  0  0  0
 15 23  1  0  0  0  0
 15 27  1  0  0  0  0
 15 47  1  0  0  0  0
 16 17  1  0  0  0  0
 16 48  1  0  0  0  0
 16 49  1  0  0  0  0
 17 18  1  0  0  0  0
 17 22  2  0  0  0  0
 18 19  2  0  0  0  0
 18 50  1  0  0  0  0
 19 20  1  0  0  0  0
 19 51  1  0  0  0  0
 20 21  2  0  0  0  0
 20 29  1  0  0  0  0
 21 22  1  0  0  0  0
 21 52  1  0  0  0  0
 22 53  1  0  0  0  0
 23 24  1  0  0  0  0
 23 54  1  0  0  0  0
 23 55  1  0  0  0  0
 24 25  1  0  0  0  0
 24 56  1  0  0  0  0
 24 57  1  0  0  0  0
 25 26  1  0  0  0  0
 25 58  1  0  0  0  0
 25 59  1  0  0  0  0
 26 27  1  0  0  0  0
 26 60  1  0  0  0  0
 26 61  1  0  0  0  0
 27 62  1  0  0  0  0
 27 63  1  0  0  0  0
 28 36  1  0  0  0  0
 28 64  1  0  0  0  0
 28 65  1  0  0  0  0
 29 66  1  0  0  0  0
 29 67  1  0  0  0  0
 30 31  1  0  0  0  0
 30 68  1  0  0  0  0
 30 69  1  0  0  0  0
 31 33  1  0  0  0  0
 31 70  1  0  0  0  0
 33 34  1  0  0  0  0
 33 71  1  0  0  0  0
 33 72  1  0  0  0  0
 34 35  1  0  0  0  0
 34 73  1  0  0  0  0
 34 74  1  0  0  0  0
 35 75  1  0  0  0  0
 35 76  1  0  0  0  0
 35 77  1  0  0  0  0
 36 37  1  0  0  0  0
 36 41  1  0  0  0  0
 36 78  1  0  0  0  0
 37 38  1  0  0  0  0
 37 79  1  0  0  0  0
 37 80  1  0  0  0  0
 38 39  1  0  0  0  0
 38 81  1  0  0  0  0
 38 82  1  0  0  0  0
 39 40  1  0  0  0  0
 39 83  1  0  0  0  0
 39 84  1  0  0  0  0
 40 41  1  0  0  0  0
 40 85  1  0  0  0  0
 40 86  1  0  0  0  0
 41 87  1  0  0  0  0
 41 88  1  0  0  0  0
M  END
>  <PARENT_CMPD_ID>
3L5E

>  <STANDARD_TYPE>
IC50

>  <RELATION>
=

>  <STANDARD_VALUE>
0.027000001

>  <STANDARD_UNITS>
uM

>  <COMPOUND_KEY>
39

>  <PUBMED_ID>
20043696

>  <JOURNAL>
J.Med.Chem.

>  <YEAR>
2010

>  <VOLUME>
53

>  <FIRST_PAGE>
951

>  <Company>
Schering

>  <Resolution>
1.53

>  <idx>
57

>  <Model>
Train

>  <target>
7.5686364

>  <des_pred_mlr>
6.5395699

>  <RF_Canvas>
7.4768696

>  <DNN_Canvas>
6.9056396

>  <pred_CoMFA>
7.8685002

>  <pred_COMSIA>
7.4355001

>  <pred_abm5>
7.3929157

>  <pred_ff8>
5.4380665

>  <pred_gau6>
7.4955988

>  <CID>
BACE_57

>  <active>
1

>  <des_class_bayes>
1

>  <maacs_class_bayes>
0

>  <radial_class_bayes>
1

>  <dend_class_bayes>
1

>  <molprint_class_bayes>
1

>  <RF_canvas>
1

>  <DNN_canvas>
1

$$$$
2QZK_5831
  MOE2015           3D

 72 76  0  0  1  0  0  0  0  0999 V2000
   27.3840   13.9590   23.0930 C   0  0  0  0  0  0  0  0  0  0  0  0
   27.7070   15.2620   23.6280 C   0  0  0  0  0  0  0  0  0  0  0  0
   26.7890   15.9740   24.4910 C   0  0  0  0  0  0  0  0  0  0  0  0
   25.5520   15.3320   24.8460 C   0  0  0  0  0  0  0  0  0  0  0  0
   25.1960   14.0750   24.2950 C   0  0  0  0  0  0  0  0  0  0  0  0
   26.0750   13.3500   23.4120 C   0  0  0  0  0  0  0  0  0  0  0  0
   28.3970   13.2470   22.2780 C   0  0  0  0  0  0  0  0  0  0  0  0
   23.7770   13.6790   24.6080 C   0  0  0  0  0  0  0  0  0  0  0  0
   23.6530   12.3140   24.2170 O   0  0  0  0  0  0  0  0  0  0  0  0
   28.2800   11.9180   22.3330 N   0  0  0  0  0  0  0  0  0  0  0  0
   28.9810   10.8440   21.6250 C   0  0  3  0  0  0  0  0  0  0  0  0
   22.3890   10.5340   23.3510 C   0  0  3  0  0  0  0  0  0  0  0  0
   28.2140    9.9040   20.6740 C   0  0  0  0  0  0  0  0  0  0  0  0
   27.2360   10.5720   19.6990 C   0  0  0  0  0  0  0  0  0  0  0  0
   23.4810    9.7940   24.0040 N   0  3  0  0  0  0  0  0  0  0  0  0
   22.4600   10.5170   21.7890 C   0  0  0  0  0  0  0  0  0  0  0  0
   25.9400   11.2300   20.1820 C   0  0  0  0  0  0  0  0  0  0  0  0
   24.8990   10.4970   20.8740 C   0  0  0  0  0  0  0  0  0  0  0  0
   23.6580   11.1990   21.1340 C   0  0  0  0  0  0  0  0  0  0  0  0
   23.4880   12.5830   20.7480 C   0  0  0  0  0  0  0  0  0  0  0  0
   24.5410   13.3050   20.0730 C   0  0  0  0  0  0  0  0  0  0  0  0
   25.7630   12.6040   19.8010 C   0  0  0  0  0  0  0  0  0  0  0  0
   30.8920    8.6510   24.0730 C   0  0  0  0  0  0  0  0  0  0  0  0
   29.8060    9.2800   23.3400 C   0  0  0  0  0  0  0  0  0  0  0  0
   30.1230   10.2880   22.3190 C   0  0  0  0  0  0  0  0  0  0  0  0
   31.4780   10.7140   21.9940 C   0  0  0  0  0  0  0  0  0  0  0  0
   32.5480   10.0900   22.7480 C   0  0  0  0  0  0  0  0  0  0  0  0
   32.2550    9.0760   23.7600 C   0  0  0  0  0  0  0  0  0  0  0  0
   22.4410   11.9570   23.7840 C   0  0  0  0  0  0  0  0  0  0  0  0
   21.0490    9.9810   23.9750 C   0  0  0  0  0  0  0  0  0  0  0  0
   29.2880   13.7500   21.5810 O   0  0  0  0  0  0  0  0  0  0  0  0
   21.4930   12.6970   23.7850 O   0  0  0  0  0  0  0  0  0  0  0  0
   26.3600   18.4870   24.7210 C   0  0  0  0  0  0  0  0  0  0  0  0
   26.5910   19.7720   25.4110 C   0  0  0  0  0  0  0  0  0  0  0  0
   27.5530   19.9180   26.5030 C   0  0  0  0  0  0  0  0  0  0  0  0
   28.2970   18.7350   26.9120 C   0  0  0  0  0  0  0  0  0  0  0  0
   28.0660   17.4490   26.2510 C   0  0  0  0  0  0  0  0  0  0  0  0
   27.1080   17.2880   25.1550 C   0  0  0  0  0  0  0  0  0  0  0  0
   28.7460   16.3430   26.8570 C   0  0  0  0  0  0  0  0  0  0  0  0
   29.0620   15.3170   27.2960 N   0  0  0  0  0  0  0  0  0  0  0  0
   28.6550   15.7150   23.3780 H   0  0  0  0  0  0  0  0  0  0  0  0
   24.8840   15.8150   25.5430 H   0  0  0  0  0  0  0  0  0  0  0  0
   25.7870   12.3950   22.9980 H   0  0  0  0  0  0  0  0  0  0  0  0
   23.0780   14.2990   24.0460 H   0  0  0  0  0  0  0  0  0  0  0  0
   23.5810   13.7860   25.6750 H   0  0  0  0  0  0  0  0  0  0  0  0
   27.5780   11.5930   22.9830 H   0  0  0  0  0  0  0  0  0  0  0  0
   29.4130   11.4470   20.8260 H   0  0  0  0  0  0  0  0  0  0  0  0
   27.6460    9.2040   21.2860 H   0  0  0  0  0  0  0  0  0  0  0  0
   28.9490    9.3570   20.0840 H   0  0  0  0  0  0  0  0  0  0  0  0
   26.9410    9.8030   18.9850 H   0  0  0  0  0  0  0  0  0  0  0  0
   27.8000   11.3490   19.1830 H   0  0  0  0  0  0  0  0  0  0  0  0
   24.3680   10.1110   23.6390 H   0  0  0  0  0  0  0  0  0  0  0  0
   23.3750    8.8060   23.8210 H   0  0  0  0  0  0  0  0  0  0  0  0
   23.4490    9.9570   25.0000 H   0  0  0  0  0  0  0  0  0  0  0  0
   21.5600   11.0060   21.4150 H   0  0  0  0  0  0  0  0  0  0  0  0
   22.4640    9.4740   21.4730 H   0  0  0  0  0  0  0  0  0  0  0  0
   25.0420    9.4720   21.1830 H   0  0  0  0  0  0  0  0  0  0  0  0
   22.5570   13.0850   20.9680 H   0  0  0  0  0  0  0  0  0  0  0  0
   24.4130   14.3370   19.7830 H   0  0  0  0  0  0  0  0  0  0  0  0
   26.5680   13.1210   19.2990 H   0  0  0  0  0  0  0  0  0  0  0  0
   30.6990    7.8970   24.8220 H   0  0  0  0  0  0  0  0  0  0  0  0
   28.7800    9.0100   23.5430 H   0  0  0  0  0  0  0  0  0  0  0  0
   31.6750   11.4540   21.2330 H   0  0  0  0  0  0  0  0  0  0  0  0
   33.5720   10.3770   22.5600 H   0  0  0  0  0  0  0  0  0  0  0  0
   33.0760    8.6240   24.2960 H   0  0  0  0  0  0  0  0  0  0  0  0
   20.9280    8.9320   23.7050 H   0  0  0  0  0  0  0  0  0  0  0  0
   20.2050   10.5540   23.5910 H   0  0  0  0  0  0  0  0  0  0  0  0
   21.0880   10.0750   25.0600 H   0  0  0  0  0  0  0  0  0  0  0  0
   25.6520   18.4240   23.9080 H   0  0  0  0  0  0  0  0  0  0  0  0
   26.0270   20.6380   25.0970 H   0  0  0  0  0  0  0  0  0  0  0  0
   27.7060   20.8700   26.9890 H   0  0  0  0  0  0  0  0  0  0  0  0
   29.0240   18.8070   27.7080 H   0  0  0  0  0  0  0  0  0  0  0  0
  1  2  1  0  0  0  0
  1  6  2  0  0  0  0
  1  7  1  0  0  0  0
  2  3  2  0  0  0  0
  2 41  1  0  0  0  0
  3  4  1  0  0  0  0
  3 38  1  0  0  0  0
  4  5  2  0  0  0  0
  4 42  1  0  0  0  0
  5  6  1  0  0  0  0
  5  8  1  0  0  0  0
  6 43  1  0  0  0  0
  7 10  1  0  0  0  0
  7 31  2  0  0  0  0
  8  9  1  0  0  0  0
  8 44  1  0  0  0  0
  8 45  1  0  0  0  0
  9 29  1  0  0  0  0
 10 11  1  0  0  0  0
 10 46  1  0  0  0  0
 11 13  1  0  0  0  0
 11 25  1  0  0  0  0
 11 47  1  0  0  0  0
 12 15  1  0  0  0  0
 12 16  1  0  0  0  0
 12 29  1  0  0  0  0
 12 30  1  0  0  0  0
 13 14  1  0  0  0  0
 13 48  1  0  0  0  0
 13 49  1  0  0  0  0
 14 17  1  0  0  0  0
 14 50  1  0  0  0  0
 14 51  1  0  0  0  0
 15 52  1  0  0  0  0
 15 53  1  0  0  0  0
 15 54  1  0  0  0  0
 16 19  1  0  0  0  0
 16 55  1  0  0  0  0
 16 56  1  0  0  0  0
 17 18  1  0  0  0  0
 17 22  2  0  0  0  0
 18 19  2  0  0  0  0
 18 57  1  0  0  0  0
 19 20  1  0  0  0  0
 20 21  2  0  0  0  0
 20 58  1  0  0  0  0
 21 22  1  0  0  0  0
 21 59  1  0  0  0  0
 22 60  1  0  0  0  0
 23 24  1  0  0  0  0
 23 28  2  0  0  0  0
 23 61  1  0  0  0  0
 24 25  2  0  0  0  0
 24 62  1  0  0  0  0
 25 26  1  0  0  0  0
 26 27  2  0  0  0  0
 26 63  1  0  0  0  0
 27 28  1  0  0  0  0
 27 64  1  0  0  0  0
 28 65  1  0  0  0  0
 29 32  2  0  0  0  0
 30 66  1  0  0  0  0
 30 67  1  0  0  0  0
 30 68  1  0  0  0  0
 33 34  2  0  0  0  0
 33 38  1  0  0  0  0
 33 69  1  0  0  0  0
 34 35  1  0  0  0  0
 34 70  1  0  0  0  0
 35 36  2  0  0  0  0
 35 71  1  0  0  0  0
 36 37  1  0  0  0  0
 36 72  1  0  0  0  0
 37 38  2  0  0  0  0
 37 39  1  0  0  0  0
 39 40  3  0  0  0  0
M  CHG  1  15   1
M  END
>  <PARENT_CMPD_ID>
2QZK

>  <STANDARD_TYPE>
IC50

>  <RELATION>
=

>  <STANDARD_VALUE>
0.027000001

>  <STANDARD_UNITS>
uM

>  <COMPOUND_KEY>
1b

>  <PUBMED_ID>
17827011

>  <JOURNAL>
Bioorg.Med.Chem.Lett.

>  <YEAR>
2007

>  <VOLUME>
17

>  <FIRST_PAGE>
5831

>  <Company>
Merck

>  <Resolution>
1.8

>  <idx>
58

>  <Model>
Train

>  <target>
7.5686364

>  <des_pred_mlr>
7.3751001

>  <RF_Canvas>
7.3739076

>  <DNN_Canvas>
7.0933356

>  <pred_CoMFA>
7.2596998

>  <pred_COMSIA>
6.9229002

>  <pred_abm5>
7.1020002

>  <pred_ff8>
6.3440466

>  <pred_gau6>
6.9212461

>  <CID>
BACE_58

>  <active>
1

>  <des_class_bayes>
0

>  <maacs_class_bayes>
0

>  <radial_class_bayes>
1

>  <dend_class_bayes>
1

>  <molprint_class_bayes>
1

>  <RF_canvas>
1

>  <DNN_canvas>
1

$$$$
2PH6_4057
  MOE2015           3D

 71 73  0  0  1  0  0  0  0  0999 V2000
   22.2440   10.4070   23.4920 C   0  0  3  0  0  0  0  0  0  0  0  0
   23.4550    9.6450   23.9270 N   0  3  0  0  0  0  0  0  0  0  0  0
   22.3560   11.8630   23.9040 C   0  0  0  0  0  0  0  0  0  0  0  0
   23.6330   12.2310   24.0050 O   0  0  0  0  0  0  0  0  0  0  0  0
   21.4060   12.6340   23.9260 O   0  0  0  0  0  0  0  0  0  0  0  0
   21.0860    9.7820   24.2790 C   0  0  0  0  0  0  0  0  0  0  0  0
   22.0680   10.3280   21.9630 C   0  0  0  0  0  0  0  0  0  0  0  0
   23.1590   10.8900   21.0720 C   0  0  0  0  0  0  0  0  0  0  0  0
   24.2150   10.0830   20.6460 C   0  0  0  0  0  0  0  0  0  0  0  0
   25.1950   11.9320   19.4300 C   0  0  0  0  0  0  0  0  0  0  0  0
   24.1410   12.7470   19.8570 C   0  0  0  0  0  0  0  0  0  0  0  0
   25.2310   10.5940   19.8310 C   0  0  0  0  0  0  0  0  0  0  0  0
   23.1300   12.2270   20.6690 C   0  0  0  0  0  0  0  0  0  0  0  0
   27.9620   14.8660   24.1000 C   0  0  0  0  0  0  0  0  0  0  0  0
   27.5530   13.7960   23.2820 C   0  0  0  0  0  0  0  0  0  0  0  0
   26.2200   13.3510   23.3200 C   0  0  0  0  0  0  0  0  0  0  0  0
   25.3110   13.9700   24.1860 C   0  0  0  0  0  0  0  0  0  0  0  0
   25.7380   15.0180   24.9870 C   0  0  0  0  0  0  0  0  0  0  0  0
   27.0420   15.4830   24.9630 C   0  0  0  0  0  0  0  0  0  0  0  0
   27.3400   16.5140   25.7950 N   0  0  0  0  0  0  0  0  0  0  0  0
   28.5790   13.1780   22.3790 C   0  0  0  0  0  0  0  0  0  0  0  0
   28.4800   11.8460   22.2320 N   0  0  0  0  0  0  0  0  0  0  0  0
   29.4070   13.8970   21.8090 O   0  0  0  0  0  0  0  0  0  0  0  0
   28.7050   16.4440   26.7840 S   0  0  0  0  0  0  0  0  0  0  0  0
   29.9110   17.3200   25.9440 C   0  0  0  0  0  0  0  0  0  0  0  0
   29.1740   14.8330   26.8740 O   0  0  0  0  0  0  0  0  0  0  0  0
   28.3570   17.2930   28.1910 O   0  0  0  0  0  0  0  0  0  0  0  0
   26.4530   17.6830   25.9120 C   0  0  0  0  0  0  0  0  0  0  0  0
   29.3750   11.0540   21.4100 C   0  0  3  0  0  0  0  0  0  0  0  0
   30.3850   10.3120   22.2540 C   0  0  0  0  0  0  0  0  0  0  0  0
   29.9620    9.3240   23.1570 C   0  0  0  0  0  0  0  0  0  0  0  0
   32.2320    8.9100   23.7880 C   0  0  0  0  0  0  0  0  0  0  0  0
   32.6690    9.8950   22.9080 C   0  0  0  0  0  0  0  0  0  0  0  0
   30.8810    8.6130   23.9320 C   0  0  0  0  0  0  0  0  0  0  0  0
   31.7470   10.5900   22.1360 C   0  0  0  0  0  0  0  0  0  0  0  0
   28.6100   10.1330   20.4420 C   0  0  0  0  0  0  0  0  0  0  0  0
   33.1430    8.2450   24.5170 F   0  0  0  0  0  0  0  0  0  0  0  0
   23.8510   13.6190   24.3090 C   0  0  0  0  0  0  0  0  0  0  0  0
   23.5510    9.7100   24.9300 H   0  0  0  0  0  0  0  0  0  0  0  0
   24.2750   10.0350   23.4840 H   0  0  0  0  0  0  0  0  0  0  0  0
   23.3570    8.6760   23.6600 H   0  0  0  0  0  0  0  0  0  0  0  0
   21.2810    9.8750   25.3470 H   0  0  0  0  0  0  0  0  0  0  0  0
   20.9960    8.7280   24.0170 H   0  0  0  0  0  0  0  0  0  0  0  0
   20.1580   10.2980   24.0320 H   0  0  0  0  0  0  0  0  0  0  0  0
   21.1490   10.8600   21.7180 H   0  0  0  0  0  0  0  0  0  0  0  0
   21.9570    9.2740   21.7070 H   0  0  0  0  0  0  0  0  0  0  0  0
   24.2480    9.0470   20.9500 H   0  0  0  0  0  0  0  0  0  0  0  0
   25.9730   12.3330   18.7970 H   0  0  0  0  0  0  0  0  0  0  0  0
   24.1090   13.7840   19.5570 H   0  0  0  0  0  0  0  0  0  0  0  0
   26.0420    9.9550   19.5120 H   0  0  0  0  0  0  0  0  0  0  0  0
   22.3190   12.8650   20.9880 H   0  0  0  0  0  0  0  0  0  0  0  0
   28.9840   15.2130   24.0640 H   0  0  0  0  0  0  0  0  0  0  0  0
   25.9000   12.5380   22.6860 H   0  0  0  0  0  0  0  0  0  0  0  0
   25.0290   15.4880   25.6530 H   0  0  0  0  0  0  0  0  0  0  0  0
   27.7380   11.3680   22.7230 H   0  0  0  0  0  0  0  0  0  0  0  0
   30.1640   16.7970   25.0220 H   0  0  0  0  0  0  0  0  0  0  0  0
   30.8000   17.4050   26.5690 H   0  0  0  0  0  0  0  0  0  0  0  0
   29.5380   18.3160   25.7070 H   0  0  0  0  0  0  0  0  0  0  0  0
   25.6230   17.5810   25.2130 H   0  0  0  0  0  0  0  0  0  0  0  0
   27.0130   18.5890   25.6810 H   0  0  0  0  0  0  0  0  0  0  0  0
   26.0660   17.7450   26.9290 H   0  0  0  0  0  0  0  0  0  0  0  0
   29.9390   11.7420   20.7810 H   0  0  0  0  0  0  0  0  0  0  0  0
   28.9080    9.1100   23.2540 H   0  0  0  0  0  0  0  0  0  0  0  0
   33.7220   10.1190   22.8250 H   0  0  0  0  0  0  0  0  0  0  0  0
   30.5510    7.8530   24.6250 H   0  0  0  0  0  0  0  0  0  0  0  0
   32.0850   11.3470   21.4430 H   0  0  0  0  0  0  0  0  0  0  0  0
   28.0210    9.4150   21.0130 H   0  0  0  0  0  0  0  0  0  0  0  0
   29.3200    9.6000   19.8100 H   0  0  0  0  0  0  0  0  0  0  0  0
   27.9470   10.7320   19.8180 H   0  0  0  0  0  0  0  0  0  0  0  0
   23.5200   13.8180   25.3280 H   0  0  0  0  0  0  0  0  0  0  0  0
   23.2760   14.2320   23.6140 H   0  0  0  0  0  0  0  0  0  0  0  0
  1  2  1  0  0  0  0
  1  3  1  0  0  0  0
  1  6  1  0  0  0  0
  1  7  1  0  0  0  0
  2 39  1  0  0  0  0
  2 40  1  0  0  0  0
  2 41  1  0  0  0  0
  3  4  1  0  0  0  0
  3  5  2  0  0  0  0
  4 38  1  0  0  0  0
  6 42  1  0  0  0  0
  6 43  1  0  0  0  0
  6 44  1  0  0  0  0
  7  8  1  0  0  0  0
  7 45  1  0  0  0  0
  7 46  1  0  0  0  0
  8  9  1  0  0  0  0
  8 13  2  0  0  0  0
  9 12  2  0  0  0  0
  9 47  1  0  0  0  0
 10 11  2  0  0  0  0
 10 12  1  0  0  0  0
 10 48  1  0  0  0  0
 11 13  1  0  0  0  0
 11 49  1  0  0  0  0
 12 50  1  0  0  0  0
 13 51  1  0  0  0  0
 14 15  1  0  0  0  0
 14 19  2  0  0  0  0
 14 52  1  0  0  0  0
 15 16  2  0  0  0  0
 15 21  1  0  0  0  0
 16 17  1  0  0  0  0
 16 53  1  0  0  0  0
 17 18  2  0  0  0  0
 17 38  1  0  0  0  0
 18 19  1  0  0  0  0
 18 54  1  0  0  0  0
 19 20  1  0  0  0  0
 20 24  1  0  0  0  0
 20 28  1  0  0  0  0
 21 22  1  0  0  0  0
 21 23  2  0  0  0  0
 22 29  1  0  0  0  0
 22 55  1  0  0  0  0
 24 25  1  0  0  0  0
 24 26  2  0  0  0  0
 24 27  2  0  0  0  0
 25 56  1  0  0  0  0
 25 57  1  0  0  0  0
 25 58  1  0  0  0  0
 28 59  1  0  0  0  0
 28 60  1  0  0  0  0
 28 61  1  0  0  0  0
 29 30  1  0  0  0  0
 29 36  1  0  0  0  0
 29 62  1  0  0  0  0
 30 31  1  0  0  0  0
 30 35  2  0  0  0  0
 31 34  2  0  0  0  0
 31 63  1  0  0  0  0
 32 33  2  0  0  0  0
 32 34  1  0  0  0  0
 32 37  1  0  0  0  0
 33 35  1  0  0  0  0
 33 64  1  0  0  0  0
 34 65  1  0  0  0  0
 35 66  1  0  0  0  0
 36 67  1  0  0  0  0
 36 68  1  0  0  0  0
 36 69  1  0  0  0  0
 38 70  1  0  0  0  0
 38 71  1  0  0  0  0
M  CHG  1   2   1
M  END
>  <PARENT_CMPD_ID>
2PH6

>  <STANDARD_TYPE>
IC50

>  <RELATION>
=

>  <STANDARD_VALUE>
0.027000001

>  <STANDARD_UNITS>
uM

>  <COMPOUND_KEY>
1b

>  <PUBMED_ID>
17482814

>  <JOURNAL>
Bioorg.Med.Chem.Lett.

>  <YEAR>
2007

>  <VOLUME>
17

>  <FIRST_PAGE>
4057

>  <Company>
Merck

>  <Resolution>
2

>  <idx>
59

>  <Model>
Train

>  <target>
7.5686364

>  <des_pred_mlr>
6.9876299

>  <RF_Canvas>
7.3718023

>  <DNN_Canvas>
6.5012569

>  <pred_CoMFA>
7.3274002

>  <pred_COMSIA>
6.6954002

>  <pred_abm5>
7.5363393

>  <pred_ff8>
7.3781629

>  <pred_gau6>
7.2756367

>  <CID>
BACE_59

>  <active>
1

>  <des_class_bayes>
1

>  <maacs_class_bayes>
1

>  <radial_class_bayes>
1

>  <dend_class_bayes>
1

>  <molprint_class_bayes>
1

>  <RF_canvas>
1

>  <DNN_canvas>
1

$$$$
3DV5_1366
  MOE2015           3D

 85 86  0  0  1  0  0  0  0  0999 V2000
   26.2250   14.0130   23.3760 N   0  0  0  0  0  0  0  0  0  0  0  0
   25.2260   14.0320   24.4280 C   0  0  3  0  0  0  0  0  0  0  0  0
   24.0100   13.3090   23.9340 C   0  0  0  0  0  0  0  0  0  0  0  0
   24.1520   12.0010   23.6100 N   0  0  0  0  0  0  0  0  0  0  0  0
   22.9870   11.2200   23.1550 C   0  0  3  0  0  0  0  0  0  0  0  0
   23.5300   10.2530   22.0750 C   0  0  0  0  0  0  0  0  0  0  0  0
   24.2900   11.0460   20.9420 C   0  0  3  0  0  0  0  0  0  0  0  0
   24.6520    9.9920   19.8800 C   0  0  0  0  0  0  0  0  0  0  0  0
   25.5680   10.5320   18.7470 C   0  0  0  0  0  0  0  0  0  0  0  0
   26.9000   11.1250   19.2370 C   0  0  0  0  0  0  0  0  0  0  0  0
   27.7060   10.0930   20.0580 C   0  0  0  0  0  0  0  0  0  0  0  0
   29.1940   10.5650   20.1970 C   0  0  0  0  0  0  0  0  0  0  0  0
   29.3170   12.0340   20.7060 C   0  0  0  0  0  0  0  0  0  0  0  0
   28.6010   12.1860   22.0980 C   0  0  0  0  0  0  0  0  0  0  0  0
   28.6240   13.6850   22.6220 C   0  0  0  0  0  0  0  0  0  0  0  0
   27.5440   13.7720   23.7270 C   0  0  0  0  0  0  0  0  0  0  0  0
   27.8980   13.6270   24.8960 O   0  0  0  0  0  0  0  0  0  0  0  0
   23.3520   12.1780   20.3170 C   0  0  0  0  0  0  0  0  0  0  0  0
   22.3980   10.3690   24.3100 C   0  0  3  0  0  0  0  0  0  0  0  0
   21.4290    9.4560   23.7910 O   0  0  0  0  0  0  0  0  0  0  0  0
   21.7650   11.2300   25.4230 C   0  0  0  0  0  0  0  0  0  0  0  0
   21.2200   10.3870   26.5290 N   0  3  0  0  0  0  0  0  0  0  0  0
   20.2770   11.1430   27.4080 C   0  0  0  0  0  0  0  0  0  0  0  0
   19.0550   11.7500   26.6370 C   0  0  0  0  0  0  0  0  0  0  0  0
   18.2380   10.9350   25.8260 C   0  0  0  0  0  0  0  0  0  0  0  0
   17.1170   11.4820   25.1590 C   0  0  0  0  0  0  0  0  0  0  0  0
   16.8190   12.8490   25.2790 C   0  0  0  0  0  0  0  0  0  0  0  0
   17.6390   13.6570   26.0800 C   0  0  0  0  0  0  0  0  0  0  0  0
   18.7630   13.1240   26.7580 C   0  0  0  0  0  0  0  0  0  0  0  0
   16.2040   10.6400   24.3130 C   0  0  0  0  0  0  0  0  0  0  0  0
   15.6480    9.4960   25.1890 C   0  0  0  0  0  0  0  0  0  0  0  0
   16.9360   10.0470   23.1060 C   0  0  0  0  0  0  0  0  0  0  0  0
   22.9590   13.9120   23.8500 O   0  0  0  0  0  0  0  0  0  0  0  0
   24.8850   15.4900   24.8990 C   0  0  0  0  0  0  0  0  0  0  0  0
   25.8600   14.2740   21.9570 C   0  0  0  0  0  0  0  0  0  0  0  0
   25.6230   13.5270   25.3080 H   0  0  0  0  0  0  0  0  0  0  0  0
   25.0580   11.5600   23.6800 H   0  0  0  0  0  0  0  0  0  0  0  0
   22.2030   11.8830   22.7890 H   0  0  0  0  0  0  0  0  0  0  0  0
   22.6960    9.7080   21.6320 H   0  0  0  0  0  0  0  0  0  0  0  0
   24.2180    9.5480   22.5410 H   0  0  0  0  0  0  0  0  0  0  0  0
   25.1740   11.5540   21.3270 H   0  0  0  0  0  0  0  0  0  0  0  0
   23.7290    9.6260   19.4310 H   0  0  0  0  0  0  0  0  0  0  0  0
   25.1670    9.1680   20.3750 H   0  0  0  0  0  0  0  0  0  0  0  0
   25.0250   11.3100   18.2110 H   0  0  0  0  0  0  0  0  0  0  0  0
   25.7900    9.7100   18.0670 H   0  0  0  0  0  0  0  0  0  0  0  0
   26.6930   11.9930   19.8630 H   0  0  0  0  0  0  0  0  0  0  0  0
   27.4910   11.4320   18.3740 H   0  0  0  0  0  0  0  0  0  0  0  0
   27.6790    9.1280   19.5520 H   0  0  0  0  0  0  0  0  0  0  0  0
   27.2640    9.9960   21.0500 H   0  0  0  0  0  0  0  0  0  0  0  0
   29.6750   10.4930   19.2210 H   0  0  0  0  0  0  0  0  0  0  0  0
   29.7030    9.9080   20.9020 H   0  0  0  0  0  0  0  0  0  0  0  0
   28.8500   12.7050   19.9850 H   0  0  0  0  0  0  0  0  0  0  0  0
   30.3710   12.2910   20.8130 H   0  0  0  0  0  0  0  0  0  0  0  0
   29.1080   11.5520   22.8250 H   0  0  0  0  0  0  0  0  0  0  0  0
   27.5640   11.8650   21.9970 H   0  0  0  0  0  0  0  0  0  0  0  0
   28.3900   14.3730   21.8100 H   0  0  0  0  0  0  0  0  0  0  0  0
   29.6050   13.9270   23.0320 H   0  0  0  0  0  0  0  0  0  0  0  0
   22.4480   11.7200   19.9150 H   0  0  0  0  0  0  0  0  0  0  0  0
   23.8860   12.6910   19.5170 H   0  0  0  0  0  0  0  0  0  0  0  0
   23.0820   12.8950   21.0920 H   0  0  0  0  0  0  0  0  0  0  0  0
   23.2260    9.8220   24.7620 H   0  0  0  0  0  0  0  0  0  0  0  0
   20.7200    9.9740   23.4040 H   0  0  0  0  0  0  0  0  0  0  0  0
   20.9540   11.8200   24.9960 H   0  0  0  0  0  0  0  0  0  0  0  0
   22.5250   11.8980   25.8290 H   0  0  0  0  0  0  0  0  0  0  0  0
   21.9890   10.0520   27.0910 H   0  0  0  0  0  0  0  0  0  0  0  0
   20.7290    9.6010   26.1270 H   0  0  0  0  0  0  0  0  0  0  0  0
   20.8250   11.9570   27.8820 H   0  0  0  0  0  0  0  0  0  0  0  0
   19.9000   10.4650   28.1730 H   0  0  0  0  0  0  0  0  0  0  0  0
   18.4700    9.8860   25.7140 H   0  0  0  0  0  0  0  0  0  0  0  0
   15.9700   13.2720   24.7620 H   0  0  0  0  0  0  0  0  0  0  0  0
   17.4090   14.7070   26.1820 H   0  0  0  0  0  0  0  0  0  0  0  0
   19.3900   13.7640   27.3610 H   0  0  0  0  0  0  0  0  0  0  0  0
   15.3990   11.2700   23.9340 H   0  0  0  0  0  0  0  0  0  0  0  0
   16.4730    8.8840   25.5540 H   0  0  0  0  0  0  0  0  0  0  0  0
   14.9730    8.8800   24.5960 H   0  0  0  0  0  0  0  0  0  0  0  0
   15.1060    9.9170   26.0360 H   0  0  0  0  0  0  0  0  0  0  0  0
   17.7500    9.4100   23.4520 H   0  0  0  0  0  0  0  0  0  0  0  0
   17.3410   10.8530   22.4940 H   0  0  0  0  0  0  0  0  0  0  0  0
   16.2390    9.4560   22.5130 H   0  0  0  0  0  0  0  0  0  0  0  0
   24.4800   16.0570   24.0610 H   0  0  0  0  0  0  0  0  0  0  0  0
   25.7910   15.9760   25.2620 H   0  0  0  0  0  0  0  0  0  0  0  0
   24.1480   15.4500   25.7010 H   0  0  0  0  0  0  0  0  0  0  0  0
   24.7850   14.4390   21.8830 H   0  0  0  0  0  0  0  0  0  0  0  0
   26.1390   13.4150   21.3460 H   0  0  0  0  0  0  0  0  0  0  0  0
   26.3890   15.1590   21.6030 H   0  0  0  0  0  0  0  0  0  0  0  0
  1  2  1  0  0  0  0
  1 16  1  0  0  0  0
  1 35  1  0  0  0  0
  2  3  1  0  0  0  0
  2 34  1  0  0  0  0
  2 36  1  0  0  0  0
  3  4  1  0  0  0  0
  3 33  2  0  0  0  0
  4  5  1  0  0  0  0
  4 37  1  0  0  0  0
  5  6  1  0  0  0  0
  5 19  1  0  0  0  0
  5 38  1  0  0  0  0
  6  7  1  0  0  0  0
  6 39  1  0  0  0  0
  6 40  1  0  0  0  0
  7  8  1  0  0  0  0
  7 18  1  0  0  0  0
  7 41  1  0  0  0  0
  8  9  1  0  0  0  0
  8 42  1  0  0  0  0
  8 43  1  0  0  0  0
  9 10  1  0  0  0  0
  9 44  1  0  0  0  0
  9 45  1  0  0  0  0
 10 11  1  0  0  0  0
 10 46  1  0  0  0  0
 10 47  1  0  0  0  0
 11 12  1  0  0  0  0
 11 48  1  0  0  0  0
 11 49  1  0  0  0  0
 12 13  1  0  0  0  0
 12 50  1  0  0  0  0
 12 51  1  0  0  0  0
 13 14  1  0  0  0  0
 13 52  1  0  0  0  0
 13 53  1  0  0  0  0
 14 15  1  0  0  0  0
 14 54  1  0  0  0  0
 14 55  1  0  0  0  0
 15 16  1  0  0  0  0
 15 56  1  0  0  0  0
 15 57  1  0  0  0  0
 16 17  2  0  0  0  0
 18 58  1  0  0  0  0
 18 59  1  0  0  0  0
 18 60  1  0  0  0  0
 19 20  1  0  0  0  0
 19 21  1  0  0  0  0
 19 61  1  0  0  0  0
 20 62  1  0  0  0  0
 21 22  1  0  0  0  0
 21 63  1  0  0  0  0
 21 64  1  0  0  0  0
 22 23  1  0  0  0  0
 22 65  1  0  0  0  0
 22 66  1  0  0  0  0
 23 24  1  0  0  0  0
 23 67  1  0  0  0  0
 23 68  1  0  0  0  0
 24 25  1  0  0  0  0
 24 29  2  0  0  0  0
 25 26  2  0  0  0  0
 25 69  1  0  0  0  0
 26 27  1  0  0  0  0
 26 30  1  0  0  0  0
 27 28  2  0  0  0  0
 27 70  1  0  0  0  0
 28 29  1  0  0  0  0
 28 71  1  0  0  0  0
 29 72  1  0  0  0  0
 30 31  1  0  0  0  0
 30 32  1  0  0  0  0
 30 73  1  0  0  0  0
 31 74  1  0  0  0  0
 31 75  1  0  0  0  0
 31 76  1  0  0  0  0
 32 77  1  0  0  0  0
 32 78  1  0  0  0  0
 32 79  1  0  0  0  0
 34 80  1  0  0  0  0
 34 81  1  0  0  0  0
 34 82  1  0  0  0  0
 35 83  1  0  0  0  0
 35 84  1  0  0  0  0
 35 85  1  0  0  0  0
M  CHG  1  22   1
M  END
>  <PARENT_CMPD_ID>
3DV5

>  <STANDARD_TYPE>
IC50

>  <RELATION>
=

>  <STANDARD_VALUE>
0.027000001

>  <STANDARD_UNITS>
uM

>  <COMPOUND_KEY>
3

>  <PUBMED_ID>
19195887

>  <JOURNAL>
Bioorg.Med.Chem.Lett.

>  <YEAR>
2009

>  <VOLUME>
19

>  <FIRST_PAGE>
1366

>  <Company>
Novartis

>  <Resolution>
2.0999999

>  <idx>
60

>  <Model>
Train

>  <target>
7.5686364

>  <des_pred_mlr>
6.6745501

>  <RF_Canvas>
7.1115355

>  <DNN_Canvas>
7.1990943

>  <pred_CoMFA>
7.1464

>  <pred_COMSIA>
6.9829998

>  <pred_abm5>
7.4210463

>  <pred_ff8>
6.8752122

>  <pred_gau6>
7.3066449

>  <CID>
BACE_60

>  <active>
1

>  <des_class_bayes>
1

>  <maacs_class_bayes>
0

>  <radial_class_bayes>
1

>  <dend_class_bayes>
1

>  <molprint_class_bayes>
1

>  <RF_canvas>
1

>  <DNN_canvas>
1

$$$$
4J0V_3980
  MOE2015           3D

 42 44  0  0  1  0  0  0  0  0999 V2000
   31.4140   10.2700   21.9620 C   0  0  0  0  0  0  0  0  0  0  0  0
   29.1570   10.0740   21.2200 C   0  0  0  0  0  0  0  0  0  0  0  0
   29.7750    8.6770   22.9840 C   0  0  0  0  0  0  0  0  0  0  0  0
   28.0200   10.5270   20.3970 C   0  0  0  0  0  0  0  0  0  0  0  0
   32.0700    8.7800   23.8150 C   0  0  0  0  0  0  0  0  0  0  0  0
   31.0520    9.2460   22.9390 C   0  0  0  0  0  0  0  0  0  0  0  0
   30.4030   10.6840   21.1010 C   0  0  0  0  0  0  0  0  0  0  0  0
   28.8920    9.1190   22.1040 N   0  0  0  0  0  0  0  0  0  0  0  0
   26.7590   10.1810   20.8240 N   0  0  0  0  0  0  0  0  0  0  0  0
   28.2500   11.2220   19.4330 O   0  0  0  0  0  0  0  0  0  0  0  0
   32.8540    8.4110   24.5110 N   0  0  0  0  0  0  0  0  0  0  0  0
   25.4880   10.5530   20.3090 C   0  0  0  0  0  0  0  0  0  0  0  0
   25.3490   11.2400   19.1100 C   0  0  0  0  0  0  0  0  0  0  0  0
   24.0790   11.6880   18.7330 C   0  0  0  0  0  0  0  0  0  0  0  0
   22.9780   11.3840   19.5500 C   0  0  0  0  0  0  0  0  0  0  0  0
   23.1350   10.6850   20.7740 C   0  0  0  0  0  0  0  0  0  0  0  0
   24.4010   10.2780   21.1300 C   0  0  0  0  0  0  0  0  0  0  0  0
   21.9330   10.3890   21.6900 C   0  0  3  0  0  0  0  0  0  0  0  0
   20.8380    9.5850   20.9590 C   0  0  0  0  0  0  0  0  0  0  0  0
   22.4340   12.3210   23.2940 C   0  0  0  0  0  0  0  0  0  0  0  0
   22.7430   11.2530   24.2370 O   0  0  0  0  0  0  0  0  0  0  0  0
   22.6300    9.9580   23.9810 C   0  0  0  0  0  0  0  0  0  0  0  0
   22.2520    9.4950   22.8270 N   0  0  0  0  0  0  0  0  0  0  0  0
   22.9430    9.0620   25.0050 N   0  0  0  0  0  0  0  0  0  0  0  0
   21.4450   11.7220   22.2770 C   0  0  3  0  0  0  0  0  0  0  0  0
   20.2620   11.4730   22.9820 F   0  0  0  0  0  0  0  0  0  0  0  0
   21.7400   11.8370   19.1850 F   0  0  0  0  0  0  0  0  0  0  0  0
   32.4110   10.6830   21.9110 H   0  0  0  0  0  0  0  0  0  0  0  0
   29.5220    7.9130   23.7040 H   0  0  0  0  0  0  0  0  0  0  0  0
   30.5790   11.4540   20.3640 H   0  0  0  0  0  0  0  0  0  0  0  0
   26.7320    9.5690   21.6270 H   0  0  0  0  0  0  0  0  0  0  0  0
   26.2060   11.4250   18.4800 H   0  0  0  0  0  0  0  0  0  0  0  0
   23.9470   12.2600   17.8260 H   0  0  0  0  0  0  0  0  0  0  0  0
   24.5510    9.7410   22.0550 H   0  0  0  0  0  0  0  0  0  0  0  0
   21.2640    8.6580   20.5740 H   0  0  0  0  0  0  0  0  0  0  0  0
   20.4450   10.1750   20.1310 H   0  0  0  0  0  0  0  0  0  0  0  0
   20.0320    9.3530   21.6550 H   0  0  0  0  0  0  0  0  0  0  0  0
   23.3410   12.6530   22.7890 H   0  0  0  0  0  0  0  0  0  0  0  0
   21.9780   13.1640   23.8130 H   0  0  0  0  0  0  0  0  0  0  0  0
   22.8740    8.0670   24.8440 H   0  0  0  0  0  0  0  0  0  0  0  0
   23.2380    9.4090   25.9070 H   0  0  0  0  0  0  0  0  0  0  0  0
   21.3230   12.4190   21.4470 H   0  0  0  0  0  0  0  0  0  0  0  0
  1  6  2  0  0  0  0
  1  7  1  0  0  0  0
  1 28  1  0  0  0  0
  2  4  1  0  0  0  0
  2  7  2  0  0  0  0
  2  8  1  0  0  0  0
  3  6  1  0  0  0  0
  3  8  2  0  0  0  0
  3 29  1  0  0  0  0
  4  9  1  0  0  0  0
  4 10  2  0  0  0  0
  5  6  1  0  0  0  0
  5 11  3  0  0  0  0
  7 30  1  0  0  0  0
  9 12  1  0  0  0  0
  9 31  1  0  0  0  0
 12 13  1  0  0  0  0
 12 17  2  0  0  0  0
 13 14  2  0  0  0  0
 13 32  1  0  0  0  0
 14 15  1  0  0  0  0
 14 33  1  0  0  0  0
 15 16  2  0  0  0  0
 15 27  1  0  0  0  0
 16 17  1  0  0  0  0
 16 18  1  0  0  0  0
 17 34  1  0  0  0  0
 18 19  1  0  0  0  0
 18 23  1  0  0  0  0
 18 25  1  0  0  0  0
 19 35  1  0  0  0  0
 19 36  1  0  0  0  0
 19 37  1  0  0  0  0
 20 21  1  0  0  0  0
 20 25  1  0  0  0  0
 20 38  1  0  0  0  0
 20 39  1  0  0  0  0
 21 22  1  0  0  0  0
 22 23  2  0  0  0  0
 22 24  1  0  0  0  0
 24 40  1  0  0  0  0
 24 41  1  0  0  0  0
 25 26  1  0  0  0  0
 25 42  1  0  0  0  0
M  END
>  <PARENT_CMPD_ID>
4J0V

>  <STANDARD_TYPE>
IC50

>  <RELATION>
=

>  <STANDARD_VALUE>
0.028000001

>  <STANDARD_UNITS>
uM

>  <COMPOUND_KEY>
66

>  <PUBMED_ID>
23590342

>  <JOURNAL>
J.Med.Chem.

>  <YEAR>
2013

>  <VOLUME>
56

>  <FIRST_PAGE>
3980

>  <Company>
Roche

>  <Resolution>
1.9400001

>  <idx>
61

>  <Model>
Train

>  <target>
7.5528421

>  <des_pred_mlr>
6.5068698

>  <RF_Canvas>
7.223114

>  <DNN_Canvas>
7.1307425

>  <pred_CoMFA>
7.2486

>  <pred_COMSIA>
6.7210002

>  <pred_abm5>
7.3361955

>  <pred_ff8>
7.474112

>  <pred_gau6>
7.321322

>  <CID>
BACE_61

>  <active>
1

>  <des_class_bayes>
1

>  <maacs_class_bayes>
1

>  <radial_class_bayes>
1

>  <dend_class_bayes>
1

>  <molprint_class_bayes>
1

>  <RF_canvas>
1

>  <DNN_canvas>
1

$$$$
3IN4_630
  MOE2015           3D

 54 57  0  0  1  0  0  0  0  0999 V2000
   17.0930    8.0330   18.9530 C   0  0  0  0  0  0  0  0  0  0  0  0
   18.1740   10.3520   19.9390 N   0  0  0  0  0  0  0  0  0  0  0  0
   22.2070   13.0290   22.5590 O   0  0  0  0  0  0  0  0  0  0  0  0
   18.5250    7.9720   19.4630 C   0  0  0  0  0  0  0  0  0  0  0  0
   22.5640   11.2210   23.9420 N   0  0  0  0  0  0  0  0  0  0  0  0
   19.0090    9.2890   20.0120 C   0  0  0  0  0  0  0  0  0  0  0  0
   22.4650    9.4740   22.5380 N   0  0  0  0  0  0  0  0  0  0  0  0
   20.2790    9.3740   20.5700 C   0  0  0  0  0  0  0  0  0  0  0  0
   22.6010    9.0290   24.7960 N   0  0  0  0  0  0  0  0  0  0  0  0
   20.7420   10.5910   21.0850 C   0  0  0  0  0  0  0  0  0  0  0  0
   28.8050   10.0710   21.8150 N   0  0  0  0  0  0  0  0  0  0  0  0
   19.8750   11.6900   21.0060 C   0  0  0  0  0  0  0  0  0  0  0  0
   29.2130   12.0410   20.5460 N   0  0  0  0  0  0  0  0  0  0  0  0
   18.6130   11.5340   20.4350 C   0  0  0  0  0  0  0  0  0  0  0  0
   17.6730   12.7070   20.3450 C   0  0  0  0  0  0  0  0  0  0  0  0
   16.5180   12.5890   21.3270 C   0  0  0  0  0  0  0  0  0  0  0  0
   22.1480   10.6920   21.7020 C   0  0  3  0  0  0  0  0  0  0  0  0
   22.2890   11.8230   22.7520 C   0  0  0  0  0  0  0  0  0  0  0  0
   22.5890    9.8870   23.7580 C   0  0  0  0  0  0  0  0  0  0  0  0
   22.7750   11.9450   25.1710 C   0  0  0  0  0  0  0  0  0  0  0  0
   23.2090   10.8740   20.6100 C   0  0  0  0  0  0  0  0  0  0  0  0
   22.9130   11.0380   19.2520 C   0  0  0  0  0  0  0  0  0  0  0  0
   23.9410   11.1970   18.3230 C   0  0  0  0  0  0  0  0  0  0  0  0
   25.2750   11.2010   18.7250 C   0  0  0  0  0  0  0  0  0  0  0  0
   25.6090   11.0420   20.0730 C   0  0  0  0  0  0  0  0  0  0  0  0
   24.5630   10.8820   20.9950 C   0  0  0  0  0  0  0  0  0  0  0  0
   27.0000   11.0480   20.5260 C   0  0  0  0  0  0  0  0  0  0  0  0
   27.5240   10.0950   21.3780 C   0  0  0  0  0  0  0  0  0  0  0  0
   29.5920   11.0590   21.3730 C   0  0  0  0  0  0  0  0  0  0  0  0
   27.9210   12.0090   20.1450 C   0  0  0  0  0  0  0  0  0  0  0  0
   16.8020    7.0550   18.5700 H   0  0  0  0  0  0  0  0  0  0  0  0
   17.0230    8.7710   18.1540 H   0  0  0  0  0  0  0  0  0  0  0  0
   16.4280    8.3170   19.7690 H   0  0  0  0  0  0  0  0  0  0  0  0
   19.1750    7.6790   18.6390 H   0  0  0  0  0  0  0  0  0  0  0  0
   18.5810    7.2240   20.2540 H   0  0  0  0  0  0  0  0  0  0  0  0
   20.9110    8.4990   20.6070 H   0  0  0  0  0  0  0  0  0  0  0  0
   22.5120    8.0360   24.6320 H   0  0  0  0  0  0  0  0  0  0  0  0
   22.6990    9.3780   25.7390 H   0  0  0  0  0  0  0  0  0  0  0  0
   20.1830   12.6530   21.3860 H   0  0  0  0  0  0  0  0  0  0  0  0
   17.2710   12.7590   19.3330 H   0  0  0  0  0  0  0  0  0  0  0  0
   18.2280   13.6200   20.5620 H   0  0  0  0  0  0  0  0  0  0  0  0
   15.9560   11.6790   21.1190 H   0  0  0  0  0  0  0  0  0  0  0  0
   15.8620   13.4530   21.2220 H   0  0  0  0  0  0  0  0  0  0  0  0
   16.9080   12.5500   22.3440 H   0  0  0  0  0  0  0  0  0  0  0  0
   22.6880   13.0150   24.9820 H   0  0  0  0  0  0  0  0  0  0  0  0
   23.7700   11.7240   25.5570 H   0  0  0  0  0  0  0  0  0  0  0  0
   22.0260   11.6430   25.9030 H   0  0  0  0  0  0  0  0  0  0  0  0
   21.8850   11.0410   18.9220 H   0  0  0  0  0  0  0  0  0  0  0  0
   23.7000   11.3190   17.2770 H   0  0  0  0  0  0  0  0  0  0  0  0
   26.0560   11.3280   17.9900 H   0  0  0  0  0  0  0  0  0  0  0  0
   24.8060   10.7600   22.0400 H   0  0  0  0  0  0  0  0  0  0  0  0
   26.8630    9.3120   21.7200 H   0  0  0  0  0  0  0  0  0  0  0  0
   30.6180   11.0650   21.7110 H   0  0  0  0  0  0  0  0  0  0  0  0
   27.5840   12.7900   19.4790 H   0  0  0  0  0  0  0  0  0  0  0  0
  1  4  1  0  0  0  0
  1 31  1  0  0  0  0
  1 32  1  0  0  0  0
  1 33  1  0  0  0  0
  2  6  1  0  0  0  0
  2 14  2  0  0  0  0
  3 18  2  0  0  0  0
  4  6  1  0  0  0  0
  4 34  1  0  0  0  0
  4 35  1  0  0  0  0
  5 18  1  0  0  0  0
  5 19  1  0  0  0  0
  5 20  1  0  0  0  0
  6  8  2  0  0  0  0
  7 17  1  0  0  0  0
  7 19  2  0  0  0  0
  8 10  1  0  0  0  0
  8 36  1  0  0  0  0
  9 19  1  0  0  0  0
  9 37  1  0  0  0  0
  9 38  1  0  0  0  0
 10 12  2  0  0  0  0
 10 17  1  0  0  0  0
 11 28  2  0  0  0  0
 11 29  1  0  0  0  0
 12 14  1  0  0  0  0
 12 39  1  0  0  0  0
 13 29  2  0  0  0  0
 13 30  1  0  0  0  0
 14 15  1  0  0  0  0
 15 16  1  0  0  0  0
 15 40  1  0  0  0  0
 15 41  1  0  0  0  0
 16 42  1  0  0  0  0
 16 43  1  0  0  0  0
 16 44  1  0  0  0  0
 17 18  1  0  0  0  0
 17 21  1  0  0  0  0
 20 45  1  0  0  0  0
 20 46  1  0  0  0  0
 20 47  1  0  0  0  0
 21 22  1  0  0  0  0
 21 26  2  0  0  0  0
 22 23  2  0  0  0  0
 22 48  1  0  0  0  0
 23 24  1  0  0  0  0
 23 49  1  0  0  0  0
 24 25  2  0  0  0  0
 24 50  1  0  0  0  0
 25 26  1  0  0  0  0
 25 27  1  0  0  0  0
 26 51  1  0  0  0  0
 27 28  1  0  0  0  0
 27 30  2  0  0  0  0
 28 52  1  0  0  0  0
 29 53  1  0  0  0  0
 30 54  1  0  0  0  0
M  END
>  <PARENT_CMPD_ID>
3IN4

>  <STANDARD_TYPE>
IC50

>  <RELATION>
=

>  <STANDARD_VALUE>
0.029999999

>  <STANDARD_UNITS>
uM

>  <COMPOUND_KEY>
S-38

>  <PUBMED_ID>
20045648

>  <JOURNAL>
Bioorg.Med.Chem.

>  <YEAR>
2010

>  <VOLUME>
18

>  <FIRST_PAGE>
630

>  <Company>
Wyeth

>  <Resolution>
2.3

>  <idx>
62

>  <Model>
Train

>  <target>
7.5228786

>  <des_pred_mlr>
6.5065498

>  <RF_Canvas>
7.3789749

>  <DNN_Canvas>
7.5562472

>  <pred_CoMFA>
8.3396997

>  <pred_COMSIA>
7.5792999

>  <pred_abm5>
8.1316729

>  <pred_ff8>
7.1471405

>  <pred_gau6>
7.791955

>  <CID>
BACE_62

>  <active>
1

>  <des_class_bayes>
1

>  <maacs_class_bayes>
0

>  <radial_class_bayes>
1

>  <dend_class_bayes>
1

>  <molprint_class_bayes>
1

>  <RF_canvas>
1

>  <DNN_canvas>
1

$$$$
2VIE_1017
  MOE2015           3D

 88 90  0  0  1  0  0  0  0  0999 V2000
   24.3270   12.9270   23.1570 C   0  0  0  0  0  0  0  0  0  0  0  0
   24.2240   11.5790   22.9610 N   0  0  0  0  0  0  0  0  0  0  0  0
   22.9770   10.8650   22.6560 C   0  0  3  0  0  0  0  0  0  0  0  0
   22.4700   10.2510   23.9590 C   0  0  3  0  0  0  0  0  0  0  0  0
   23.3030    9.8610   21.5170 C   0  0  0  0  0  0  0  0  0  0  0  0
   21.8860   11.2570   24.9340 C   0  0  0  0  0  0  0  0  0  0  0  0
   23.3510   13.6730   23.1050 O   0  0  0  0  0  0  0  0  0  0  0  0
   25.6700   13.4410   23.4000 C   0  0  0  0  0  0  0  0  0  0  0  0
   25.9290   14.4400   24.3630 C   0  0  0  0  0  0  0  0  0  0  0  0
   27.2350   14.9270   24.5680 C   0  0  0  0  0  0  0  0  0  0  0  0
   28.3050   14.3950   23.7840 C   0  0  0  0  0  0  0  0  0  0  0  0
   28.0790   13.3930   22.8110 C   0  0  0  0  0  0  0  0  0  0  0  0
   26.7450   12.9150   22.6210 C   0  0  0  0  0  0  0  0  0  0  0  0
   24.1810   10.4470   20.4340 C   0  0  0  0  0  0  0  0  0  0  0  0
   23.8270   11.6620   19.7800 C   0  0  0  0  0  0  0  0  0  0  0  0
   24.6550   12.2100   18.7770 C   0  0  0  0  0  0  0  0  0  0  0  0
   25.8480   11.5470   18.4070 C   0  0  0  0  0  0  0  0  0  0  0  0
   26.2090   10.3400   19.0470 C   0  0  0  0  0  0  0  0  0  0  0  0
   25.3780    9.7920   20.0570 C   0  0  0  0  0  0  0  0  0  0  0  0
   21.2360   10.5810   26.0590 N   0  3  0  0  0  0  0  0  0  0  0  0
   21.4490    9.3170   23.6550 O   0  0  0  0  0  0  0  0  0  0  0  0
   29.1320   12.8900   22.0610 N   0  0  0  0  0  0  0  0  0  0  0  0
   29.0330   11.8540   21.0220 C   0  0  0  0  0  0  0  0  0  0  0  0
   29.4340   10.4930   21.5890 C   0  0  0  0  0  0  0  0  0  0  0  0
   27.4580   15.9150   25.5170 N   0  0  0  0  0  0  0  0  0  0  0  0
   26.6350   17.1360   25.6140 C   0  0  0  0  0  0  0  0  0  0  0  0
   27.4240   18.0640   26.5300 C   0  0  0  0  0  0  0  0  0  0  0  0
   28.3600   17.1520   27.3240 C   0  0  0  0  0  0  0  0  0  0  0  0
   28.4380   15.8880   26.4680 C   0  0  0  0  0  0  0  0  0  0  0  0
   29.2730   15.0080   26.6460 O   0  0  0  0  0  0  0  0  0  0  0  0
   20.3020   11.3420   26.9280 C   0  0  0  0  0  0  0  0  0  0  0  0
   21.1110   12.4970   27.5690 C   0  0  0  0  0  0  0  0  0  0  0  0
   19.7440   10.4430   28.0550 C   0  0  0  0  0  0  0  0  0  0  0  0
   19.1460   11.9180   26.0520 C   0  0  0  0  0  0  0  0  0  0  0  0
   18.2680   10.8720   25.3400 C   0  0  0  0  0  0  0  0  0  0  0  0
   17.1470   11.5170   24.5160 C   0  0  0  0  0  0  0  0  0  0  0  0
   16.2370   10.5100   23.7910 C   0  0  0  0  0  0  0  0  0  0  0  0
   15.0910   11.2640   23.1100 C   0  0  0  0  0  0  0  0  0  0  0  0
   15.6440    9.4600   24.7510 C   0  0  0  0  0  0  0  0  0  0  0  0
   25.0700   11.0310   23.0310 H   0  0  0  0  0  0  0  0  0  0  0  0
   22.1650   11.4930   22.2900 H   0  0  0  0  0  0  0  0  0  0  0  0
   23.3380    9.7960   24.4360 H   0  0  0  0  0  0  0  0  0  0  0  0
   22.3660    9.5360   21.0640 H   0  0  0  0  0  0  0  0  0  0  0  0
   23.8150    9.0020   21.9500 H   0  0  0  0  0  0  0  0  0  0  0  0
   21.1510   11.8720   24.4140 H   0  0  0  0  0  0  0  0  0  0  0  0
   22.6870   11.8920   25.3140 H   0  0  0  0  0  0  0  0  0  0  0  0
   25.1150   14.8370   24.9510 H   0  0  0  0  0  0  0  0  0  0  0  0
   29.3080   14.7660   23.9380 H   0  0  0  0  0  0  0  0  0  0  0  0
   26.5490   12.1510   21.8830 H   0  0  0  0  0  0  0  0  0  0  0  0
   22.9140   12.1700   20.0550 H   0  0  0  0  0  0  0  0  0  0  0  0
   24.3780   13.1350   18.2930 H   0  0  0  0  0  0  0  0  0  0  0  0
   26.4820   11.9620   17.6370 H   0  0  0  0  0  0  0  0  0  0  0  0
   27.1200    9.8330   18.7660 H   0  0  0  0  0  0  0  0  0  0  0  0
   25.6600    8.8690   20.5420 H   0  0  0  0  0  0  0  0  0  0  0  0
   21.9710   10.2290   26.6550 H   0  0  0  0  0  0  0  0  0  0  0  0
   20.7150    9.8060   25.6750 H   0  0  0  0  0  0  0  0  0  0  0  0
   20.7290    9.7980   23.2410 H   0  0  0  0  0  0  0  0  0  0  0  0
   30.0500   13.2700   22.2450 H   0  0  0  0  0  0  0  0  0  0  0  0
   29.6970   12.1090   20.1960 H   0  0  0  0  0  0  0  0  0  0  0  0
   28.0060   11.8040   20.6610 H   0  0  0  0  0  0  0  0  0  0  0  0
   30.4610   10.5390   21.9510 H   0  0  0  0  0  0  0  0  0  0  0  0
   29.3580    9.7370   20.8070 H   0  0  0  0  0  0  0  0  0  0  0  0
   28.7690   10.2320   22.4130 H   0  0  0  0  0  0  0  0  0  0  0  0
   25.6600   16.9090   26.0450 H   0  0  0  0  0  0  0  0  0  0  0  0
   26.5020   17.5880   24.6310 H   0  0  0  0  0  0  0  0  0  0  0  0
   26.7520   18.5980   27.2020 H   0  0  0  0  0  0  0  0  0  0  0  0
   27.9980   18.7810   25.9430 H   0  0  0  0  0  0  0  0  0  0  0  0
   27.9460   16.9310   28.3080 H   0  0  0  0  0  0  0  0  0  0  0  0
   29.3440   17.6070   27.4370 H   0  0  0  0  0  0  0  0  0  0  0  0
   21.9150   12.0830   28.1780 H   0  0  0  0  0  0  0  0  0  0  0  0
   20.4520   13.0980   28.1960 H   0  0  0  0  0  0  0  0  0  0  0  0
   21.5350   13.1230   26.7840 H   0  0  0  0  0  0  0  0  0  0  0  0
   20.5690   10.0540   28.6510 H   0  0  0  0  0  0  0  0  0  0  0  0
   19.1890    9.6130   27.6170 H   0  0  0  0  0  0  0  0  0  0  0  0
   19.0800   11.0280   28.6910 H   0  0  0  0  0  0  0  0  0  0  0  0
   19.5900   12.5590   25.2900 H   0  0  0  0  0  0  0  0  0  0  0  0
   18.5010   12.5140   26.6970 H   0  0  0  0  0  0  0  0  0  0  0  0
   17.8210   10.2200   26.0910 H   0  0  0  0  0  0  0  0  0  0  0  0
   18.8970   10.2810   24.6740 H   0  0  0  0  0  0  0  0  0  0  0  0
   17.6030   12.1660   23.7680 H   0  0  0  0  0  0  0  0  0  0  0  0
   16.5300   12.1140   25.1870 H   0  0  0  0  0  0  0  0  0  0  0  0
   16.8490    9.9840   23.0580 H   0  0  0  0  0  0  0  0  0  0  0  0
   14.4970   11.7800   23.8640 H   0  0  0  0  0  0  0  0  0  0  0  0
   14.4600   10.5570   22.5710 H   0  0  0  0  0  0  0  0  0  0  0  0
   15.5010   11.9920   22.4100 H   0  0  0  0  0  0  0  0  0  0  0  0
   15.0260    9.9580   25.4980 H   0  0  0  0  0  0  0  0  0  0  0  0
   16.4530    8.9240   25.2480 H   0  0  0  0  0  0  0  0  0  0  0  0
   15.0340    8.7550   24.1860 H   0  0  0  0  0  0  0  0  0  0  0  0
  1  2  1  0  0  0  0
  1  7  2  0  0  0  0
  1  8  1  0  0  0  0
  2  3  1  0  0  0  0
  2 40  1  0  0  0  0
  3  4  1  0  0  0  0
  3  5  1  0  0  0  0
  3 41  1  0  0  0  0
  4  6  1  0  0  0  0
  4 21  1  0  0  0  0
  4 42  1  0  0  0  0
  5 14  1  0  0  0  0
  5 43  1  0  0  0  0
  5 44  1  0  0  0  0
  6 20  1  0  0  0  0
  6 45  1  0  0  0  0
  6 46  1  0  0  0  0
  8  9  1  0  0  0  0
  8 13  2  0  0  0  0
  9 10  2  0  0  0  0
  9 47  1  0  0  0  0
 10 11  1  0  0  0  0
 10 25  1  0  0  0  0
 11 12  2  0  0  0  0
 11 48  1  0  0  0  0
 12 13  1  0  0  0  0
 12 22  1  0  0  0  0
 13 49  1  0  0  0  0
 14 15  1  0  0  0  0
 14 19  2  0  0  0  0
 15 16  2  0  0  0  0
 15 50  1  0  0  0  0
 16 17  1  0  0  0  0
 16 51  1  0  0  0  0
 17 18  2  0  0  0  0
 17 52  1  0  0  0  0
 18 19  1  0  0  0  0
 18 53  1  0  0  0  0
 19 54  1  0  0  0  0
 20 31  1  0  0  0  0
 20 55  1  0  0  0  0
 20 56  1  0  0  0  0
 21 57  1  0  0  0  0
 22 23  1  0  0  0  0
 22 58  1  0  0  0  0
 23 24  1  0  0  0  0
 23 59  1  0  0  0  0
 23 60  1  0  0  0  0
 24 61  1  0  0  0  0
 24 62  1  0  0  0  0
 24 63  1  0  0  0  0
 25 26  1  0  0  0  0
 25 29  1  0  0  0  0
 26 27  1  0  0  0  0
 26 64  1  0  0  0  0
 26 65  1  0  0  0  0
 27 28  1  0  0  0  0
 27 66  1  0  0  0  0
 27 67  1  0  0  0  0
 28 29  1  0  0  0  0
 28 68  1  0  0  0  0
 28 69  1  0  0  0  0
 29 30  2  0  0  0  0
 31 32  1  0  0  0  0
 31 33  1  0  0  0  0
 31 34  1  0  0  0  0
 32 70  1  0  0  0  0
 32 71  1  0  0  0  0
 32 72  1  0  0  0  0
 33 73  1  0  0  0  0
 33 74  1  0  0  0  0
 33 75  1  0  0  0  0
 34 35  1  0  0  0  0
 34 76  1  0  0  0  0
 34 77  1  0  0  0  0
 35 36  1  0  0  0  0
 35 78  1  0  0  0  0
 35 79  1  0  0  0  0
 36 37  1  0  0  0  0
 36 80  1  0  0  0  0
 36 81  1  0  0  0  0
 37 38  1  0  0  0  0
 37 39  1  0  0  0  0
 37 82  1  0  0  0  0
 38 83  1  0  0  0  0
 38 84  1  0  0  0  0
 38 85  1  0  0  0  0
 39 86  1  0  0  0  0
 39 87  1  0  0  0  0
 39 88  1  0  0  0  0
M  CHG  1  20   1
M  END
>  <PARENT_CMPD_ID>
2VIE

>  <STANDARD_TYPE>
IC50

>  <RELATION>
=

>  <STANDARD_VALUE>
0.033

>  <STANDARD_UNITS>
uM

>  <COMPOUND_KEY>
12

>  <PUBMED_ID>
18166458

>  <JOURNAL>
Bioorg.Med.Chem.Lett.

>  <YEAR>
2008

>  <VOLUME>
18

>  <FIRST_PAGE>
1017

>  <Company>
GSK

>  <Resolution>
1.9

>  <idx>
63

>  <Model>
Train

>  <target>
7.4814858

>  <des_pred_mlr>
7.1351099

>  <RF_Canvas>
7.3882179

>  <DNN_Canvas>
7.1128407

>  <pred_CoMFA>
7.4703999

>  <pred_COMSIA>
7.5141001

>  <pred_abm5>
7.5408072

>  <pred_ff8>
6.5417075

>  <pred_gau6>
7.5379782

>  <CID>
BACE_63

>  <active>
1

>  <des_class_bayes>
1

>  <maacs_class_bayes>
0

>  <radial_class_bayes>
1

>  <dend_class_bayes>
1

>  <molprint_class_bayes>
1

>  <RF_canvas>
1

>  <DNN_canvas>
1

$$$$
4K8S_4459
  MOE2015           3D

 82 86  0  0  1  0  0  0  0  0999 V2000
   19.0100   12.4080   29.4980 C   0  0  0  0  0  0  0  0  0  0  0  0
   19.9040   13.0840   30.5590 C   0  0  0  0  0  0  0  0  0  0  0  0
   20.6680   13.8370   29.4190 C   0  0  0  0  0  0  0  0  0  0  0  0
   20.0380   12.8350   28.4070 C   0  0  0  0  0  0  0  0  0  0  0  0
   20.9990   11.7010   27.9630 C   0  0  0  0  0  0  0  0  0  0  0  0
   19.4490   13.4480   27.2750 O   0  0  0  0  0  0  0  0  0  0  0  0
   18.8500   12.6890   26.3570 C   0  0  0  0  0  0  0  0  0  0  0  0
   17.8550   13.2920   25.5870 C   0  0  0  0  0  0  0  0  0  0  0  0
   17.1720   12.5250   24.6540 C   0  0  0  0  0  0  0  0  0  0  0  0
   17.5270   11.1890   24.4830 C   0  0  0  0  0  0  0  0  0  0  0  0
   16.8510   10.3260   23.4700 C   0  0  0  0  0  0  0  0  0  0  0  0
   15.8040    9.5120   24.2090 C   0  0  0  0  0  0  0  0  0  0  0  0
   18.5040   10.5990   25.2420 C   0  0  0  0  0  0  0  0  0  0  0  0
   19.1850   11.3540   26.1760 C   0  0  0  0  0  0  0  0  0  0  0  0
   20.2740   10.6740   27.0100 C   0  0  3  0  0  0  0  0  0  0  0  0
   21.2140    9.9020   26.1110 N   0  3  0  0  0  0  0  0  0  0  0  0
   22.1820   10.7010   25.2880 C   0  0  0  0  0  0  0  0  0  0  0  0
   22.5540    9.7890   24.0890 C   0  0  3  0  0  0  0  0  0  0  0  0
   21.3620    9.1200   23.6770 O   0  0  0  0  0  0  0  0  0  0  0  0
   23.1250   10.5070   22.8280 C   0  0  3  0  0  0  0  0  0  0  0  0
   23.4780    9.4830   21.7480 C   0  0  0  0  0  0  0  0  0  0  0  0
   24.3090   10.0980   20.6600 C   0  0  0  0  0  0  0  0  0  0  0  0
   25.6900   10.0120   20.7080 C   0  0  0  0  0  0  0  0  0  0  0  0
   23.6600   10.7800   19.6320 C   0  0  0  0  0  0  0  0  0  0  0  0
   24.4220   11.3750   18.6350 C   0  0  0  0  0  0  0  0  0  0  0  0
   25.8190   11.2820   18.6590 C   0  0  0  0  0  0  0  0  0  0  0  0
   26.4630   10.5930   19.6980 C   0  0  0  0  0  0  0  0  0  0  0  0
   28.0020   10.5130   19.7170 C   0  0  0  0  0  0  0  0  0  0  0  0
   28.5720   11.4100   20.8200 C   0  0  0  0  0  0  0  0  0  0  0  0
   28.4700   12.8900   20.4370 C   0  0  0  0  0  0  0  0  0  0  0  0
   28.7640   13.8080   21.6420 C   0  0  0  0  0  0  0  0  0  0  0  0
   27.7370   13.5010   22.7500 C   0  0  0  0  0  0  0  0  0  0  0  0
   26.2610   13.6970   22.3280 C   0  0  0  0  0  0  0  0  0  0  0  0
   25.3720   13.5270   23.5790 C   0  0  0  0  0  0  0  0  0  0  0  0
   24.1240   12.7150   23.2800 C   0  0  0  0  0  0  0  0  0  0  0  0
   23.0520   13.2910   23.1680 O   0  0  0  0  0  0  0  0  0  0  0  0
   24.2750   11.3910   23.1310 N   0  0  0  0  0  0  0  0  0  0  0  0
   18.0240   12.8590   29.3880 H   0  0  0  0  0  0  0  0  0  0  0  0
   18.9050   11.3300   29.6190 H   0  0  0  0  0  0  0  0  0  0  0  0
   20.5230   12.3910   31.1290 H   0  0  0  0  0  0  0  0  0  0  0  0
   19.3660   13.7390   31.2440 H   0  0  0  0  0  0  0  0  0  0  0  0
   21.7540   13.7840   29.4910 H   0  0  0  0  0  0  0  0  0  0  0  0
   20.3630   14.8740   29.2780 H   0  0  0  0  0  0  0  0  0  0  0  0
   21.3570   11.1730   28.8470 H   0  0  0  0  0  0  0  0  0  0  0  0
   21.8450   12.1400   27.4340 H   0  0  0  0  0  0  0  0  0  0  0  0
   17.6200   14.3380   25.7150 H   0  0  0  0  0  0  0  0  0  0  0  0
   16.3750   12.9580   24.0680 H   0  0  0  0  0  0  0  0  0  0  0  0
   17.5770    9.6630   22.9990 H   0  0  0  0  0  0  0  0  0  0  0  0
   16.3760   10.9440   22.7090 H   0  0  0  0  0  0  0  0  0  0  0  0
   16.2900    8.8980   24.9670 H   0  0  0  0  0  0  0  0  0  0  0  0
   15.2780    8.8690   23.5030 H   0  0  0  0  0  0  0  0  0  0  0  0
   15.0920   10.1840   24.6870 H   0  0  0  0  0  0  0  0  0  0  0  0
   18.7390    9.5530   25.1110 H   0  0  0  0  0  0  0  0  0  0  0  0
   19.8130    9.9450   27.6770 H   0  0  0  0  0  0  0  0  0  0  0  0
   20.6490    9.3590   25.4740 H   0  0  0  0  0  0  0  0  0  0  0  0
   21.7530    9.2800   26.6970 H   0  0  0  0  0  0  0  0  0  0  0  0
   23.0700   10.9440   25.8720 H   0  0  0  0  0  0  0  0  0  0  0  0
   21.7150   11.6210   24.9370 H   0  0  0  0  0  0  0  0  0  0  0  0
   23.3490    9.1390   24.4530 H   0  0  0  0  0  0  0  0  0  0  0  0
   20.7410    9.7890   23.3800 H   0  0  0  0  0  0  0  0  0  0  0  0
   22.3390   11.1610   22.4510 H   0  0  0  0  0  0  0  0  0  0  0  0
   22.5570    9.0940   21.3140 H   0  0  0  0  0  0  0  0  0  0  0  0
   24.0380    8.6660   22.2030 H   0  0  0  0  0  0  0  0  0  0  0  0
   26.1700    9.4960   21.5260 H   0  0  0  0  0  0  0  0  0  0  0  0
   22.5820   10.8450   19.6110 H   0  0  0  0  0  0  0  0  0  0  0  0
   23.9340   11.9130   17.8360 H   0  0  0  0  0  0  0  0  0  0  0  0
   26.4030   11.7420   17.8750 H   0  0  0  0  0  0  0  0  0  0  0  0
   28.3900   10.8400   18.7520 H   0  0  0  0  0  0  0  0  0  0  0  0
   28.3050    9.4820   19.9000 H   0  0  0  0  0  0  0  0  0  0  0  0
   29.6200   11.1550   20.9800 H   0  0  0  0  0  0  0  0  0  0  0  0
   28.0130   11.2410   21.7400 H   0  0  0  0  0  0  0  0  0  0  0  0
   27.4620   13.0930   20.0740 H   0  0  0  0  0  0  0  0  0  0  0  0
   29.1900   13.1020   19.6470 H   0  0  0  0  0  0  0  0  0  0  0  0
   28.6780   14.8520   21.3390 H   0  0  0  0  0  0  0  0  0  0  0  0
   29.7720   13.6190   22.0120 H   0  0  0  0  0  0  0  0  0  0  0  0
   27.9400   14.1590   23.5950 H   0  0  0  0  0  0  0  0  0  0  0  0
   27.8680   12.4640   23.0580 H   0  0  0  0  0  0  0  0  0  0  0  0
   25.9900   12.9530   21.5790 H   0  0  0  0  0  0  0  0  0  0  0  0
   26.1260   14.6960   21.9130 H   0  0  0  0  0  0  0  0  0  0  0  0
   25.0740   14.5130   23.9360 H   0  0  0  0  0  0  0  0  0  0  0  0
   25.9460   13.0180   24.3530 H   0  0  0  0  0  0  0  0  0  0  0  0
   25.1950   10.9860   23.2280 H   0  0  0  0  0  0  0  0  0  0  0  0
  1  2  1  0  0  0  0
  1  4  1  0  0  0  0
  1 38  1  0  0  0  0
  1 39  1  0  0  0  0
  2  3  1  0  0  0  0
  2 40  1  0  0  0  0
  2 41  1  0  0  0  0
  3  4  1  0  0  0  0
  3 42  1  0  0  0  0
  3 43  1  0  0  0  0
  4  5  1  0  0  0  0
  4  6  1  0  0  0  0
  5 15  1  0  0  0  0
  5 44  1  0  0  0  0
  5 45  1  0  0  0  0
  6  7  1  0  0  0  0
  7  8  1  0  0  0  0
  7 14  2  0  0  0  0
  8  9  2  0  0  0  0
  8 46  1  0  0  0  0
  9 10  1  0  0  0  0
  9 47  1  0  0  0  0
 10 11  1  0  0  0  0
 10 13  2  0  0  0  0
 11 12  1  0  0  0  0
 11 48  1  0  0  0  0
 11 49  1  0  0  0  0
 12 50  1  0  0  0  0
 12 51  1  0  0  0  0
 12 52  1  0  0  0  0
 13 14  1  0  0  0  0
 13 53  1  0  0  0  0
 14 15  1  0  0  0  0
 15 16  1  0  0  0  0
 15 54  1  0  0  0  0
 16 17  1  0  0  0  0
 16 55  1  0  0  0  0
 16 56  1  0  0  0  0
 17 18  1  0  0  0  0
 17 57  1  0  0  0  0
 17 58  1  0  0  0  0
 18 19  1  0  0  0  0
 18 20  1  0  0  0  0
 18 59  1  0  0  0  0
 19 60  1  0  0  0  0
 20 21  1  0  0  0  0
 20 37  1  0  0  0  0
 20 61  1  0  0  0  0
 21 22  1  0  0  0  0
 21 62  1  0  0  0  0
 21 63  1  0  0  0  0
 22 23  1  0  0  0  0
 22 24  2  0  0  0  0
 23 27  2  0  0  0  0
 23 64  1  0  0  0  0
 24 25  1  0  0  0  0
 24 65  1  0  0  0  0
 25 26  2  0  0  0  0
 25 66  1  0  0  0  0
 26 27  1  0  0  0  0
 26 67  1  0  0  0  0
 27 28  1  0  0  0  0
 28 29  1  0  0  0  0
 28 68  1  0  0  0  0
 28 69  1  0  0  0  0
 29 30  1  0  0  0  0
 29 70  1  0  0  0  0
 29 71  1  0  0  0  0
 30 31  1  0  0  0  0
 30 72  1  0  0  0  0
 30 73  1  0  0  0  0
 31 32  1  0  0  0  0
 31 74  1  0  0  0  0
 31 75  1  0  0  0  0
 32 33  1  0  0  0  0
 32 76  1  0  0  0  0
 32 77  1  0  0  0  0
 33 34  1  0  0  0  0
 33 78  1  0  0  0  0
 33 79  1  0  0  0  0
 34 35  1  0  0  0  0
 34 80  1  0  0  0  0
 34 81  1  0  0  0  0
 35 36  2  0  0  0  0
 35 37  1  0  0  0  0
 37 82  1  0  0  0  0
M  CHG  1  16   1
M  END
>  <PARENT_CMPD_ID>
4K8S

>  <STANDARD_TYPE>
IC50

>  <RELATION>
=

>  <STANDARD_VALUE>
0.035999998

>  <STANDARD_UNITS>
uM

>  <COMPOUND_KEY>
14

>  <PUBMED_ID>
23769639

>  <JOURNAL>
Bioorg.Med.Chem.Lett.

>  <YEAR>
2013

>  <VOLUME>
23

>  <FIRST_PAGE>
4459

>  <Company>
Amgen

>  <Resolution>
2.3900001

>  <idx>
64

>  <Model>
Train

>  <target>
7.4436975

>  <des_pred_mlr>
7.5638099

>  <RF_Canvas>
7.4825764

>  <DNN_Canvas>
7.3696046

>  <pred_CoMFA>
7.7164001

>  <pred_COMSIA>
7.8497

>  <pred_abm5>
7.92485

>  <pred_ff8>
8.0949306

>  <pred_gau6>
7.9786048

>  <CID>
BACE_64

>  <active>
1

>  <des_class_bayes>
1

>  <maacs_class_bayes>
1

>  <radial_class_bayes>
1

>  <dend_class_bayes>
1

>  <molprint_class_bayes>
1

>  <RF_canvas>
1

>  <DNN_canvas>
1

$$$$
3DM6_9471
  MOE2015           3D

105108  0  0  1  0  0  0  0  0999 V2000
   29.5790   13.4360   22.3680 O   0  0  0  0  0  0  0  0  0  0  0  0
   28.5790   12.7450   22.5950 C   0  0  0  0  0  0  0  0  0  0  0  0
   28.4770   11.5380   22.0410 N   0  0  0  0  0  0  0  0  0  0  0  0
   29.5450   10.9160   21.2940 C   0  0  3  0  0  0  0  0  0  0  0  0
   30.3690   10.0900   22.2380 C   0  0  0  0  0  0  0  0  0  0  0  0
   29.8290    9.0040   22.9410 C   0  0  0  0  0  0  0  0  0  0  0  0
   30.6150    8.2370   23.8120 C   0  0  0  0  0  0  0  0  0  0  0  0
   31.9630    8.5700   24.0160 C   0  0  0  0  0  0  0  0  0  0  0  0
   32.5150    9.6650   23.3310 C   0  0  0  0  0  0  0  0  0  0  0  0
   31.7250   10.4140   22.4490 C   0  0  0  0  0  0  0  0  0  0  0  0
   28.9490   10.1020   20.1540 C   0  0  0  0  0  0  0  0  0  0  0  0
   27.4700   13.2970   23.4590 C   0  0  0  0  0  0  0  0  0  0  0  0
   27.7170   14.3290   24.3830 C   0  0  0  0  0  0  0  0  0  0  0  0
   26.7070   14.8500   25.1870 C   0  0  0  0  0  0  0  0  0  0  0  0
   26.9700   15.8930   26.1060 N   0  0  0  0  0  0  0  0  0  0  0  0
   25.9040   16.8490   26.3640 C   0  0  0  0  0  0  0  0  0  0  0  0
   28.3130   16.1470   26.8350 S   0  0  0  0  0  0  0  0  0  0  0  0
   29.1400   14.9440   26.9390 O   0  0  0  0  0  0  0  0  0  0  0  0
   29.1630   17.3060   25.9840 C   0  0  0  0  0  0  0  0  0  0  0  0
   28.0200   16.7070   28.1400 O   0  0  0  0  0  0  0  0  0  0  0  0
   25.4170   14.3440   25.0280 C   0  0  0  0  0  0  0  0  0  0  0  0
   26.1830   12.8130   23.3330 C   0  0  0  0  0  0  0  0  0  0  0  0
   25.1470   13.3210   24.1190 C   0  0  0  0  0  0  0  0  0  0  0  0
   23.7660   12.7400   23.8720 C   0  0  0  0  0  0  0  0  0  0  0  0
   22.8090   13.4970   23.7930 O   0  0  0  0  0  0  0  0  0  0  0  0
   23.6540   11.4220   23.6830 N   0  0  0  0  0  0  0  0  0  0  0  0
   22.4580   10.6770   23.3450 C   0  0  3  0  0  0  0  0  0  0  0  0
   22.8190    9.7250   22.1950 C   0  0  0  0  0  0  0  0  0  0  0  0
   24.0410   10.0080   21.4950 O   0  0  0  0  0  0  0  0  0  0  0  0
   24.2290   11.0000   20.5480 C   0  0  0  0  0  0  0  0  0  0  0  0
   23.2090   11.8930   20.2540 C   0  0  0  0  0  0  0  0  0  0  0  0
   23.3800   12.9090   19.3210 C   0  0  0  0  0  0  0  0  0  0  0  0
   22.3550   13.7300   19.0820 F   0  0  0  0  0  0  0  0  0  0  0  0
   24.5740   13.0610   18.6380 C   0  0  0  0  0  0  0  0  0  0  0  0
   25.6080   12.1790   18.9150 C   0  0  0  0  0  0  0  0  0  0  0  0
   26.7710   12.3480   18.2470 F   0  0  0  0  0  0  0  0  0  0  0  0
   25.4400   11.1490   19.8590 C   0  0  0  0  0  0  0  0  0  0  0  0
   21.8540    9.8110   24.4300 C   0  0  3  0  0  0  0  0  0  0  0  0
   22.9440    9.0780   24.9960 O   0  0  0  0  0  0  0  0  0  0  0  0
   21.0380   10.6250   25.4580 C   0  0  0  0  0  0  0  0  0  0  0  0
   19.7180   11.1860   24.9040 C   0  0  0  0  0  0  0  0  0  0  0  0
   19.7370   12.2940   24.3870 O   0  0  0  0  0  0  0  0  0  0  0  0
   18.5320   10.5340   24.9530 N   0  0  0  0  0  0  0  0  0  0  0  0
   17.3070   11.1660   24.4350 C   0  0  3  0  0  0  0  0  0  0  0  0
   16.0010   10.3610   24.4090 C   0  0  0  0  0  0  0  0  0  0  0  0
   15.2950   10.5730   23.0660 C   0  0  0  0  0  0  0  0  0  0  0  0
   16.1480    8.8920   24.7330 C   0  0  0  0  0  0  0  0  0  0  0  0
   16.8710   12.3420   25.2650 C   0  0  0  0  0  0  0  0  0  0  0  0
   16.9250   12.2900   26.4840 O   0  0  0  0  0  0  0  0  0  0  0  0
   16.3600   13.4070   24.6350 N   0  0  0  0  0  0  0  0  0  0  0  0
   15.9540   14.4840   25.3110 C   0  0  0  0  0  0  0  0  0  0  0  0
   16.8450   15.5220   25.5070 C   0  0  0  0  0  0  0  0  0  0  0  0
   16.4800   16.6620   26.2100 C   0  0  0  0  0  0  0  0  0  0  0  0
   17.5300   17.7340   26.3660 C   0  0  0  0  0  0  0  0  0  0  0  0
   18.6440   17.4270   26.8560 O   0  0  0  0  0  0  0  0  0  0  0  0
   17.3110   18.9070   25.9730 O   0  5  0  0  0  0  0  0  0  0  0  0
   14.6790   14.5500   25.8110 C   0  0  0  0  0  0  0  0  0  0  0  0
   14.2970   15.6750   26.5120 C   0  0  0  0  0  0  0  0  0  0  0  0
   15.1780   16.7450   26.7250 C   0  0  0  0  0  0  0  0  0  0  0  0
   12.9010   15.6600   27.0260 C   0  0  0  0  0  0  0  0  0  0  0  0
   11.9550   15.6820   26.2010 O   0  0  0  0  0  0  0  0  0  0  0  0
   12.7150   15.5900   28.2660 O   0  5  0  0  0  0  0  0  0  0  0  0
   27.6090   11.0320   22.1490 H   0  0  0  0  0  0  0  0  0  0  0  0
   30.2050   11.6580   20.8440 H   0  0  0  0  0  0  0  0  0  0  0  0
   28.7870    8.7530   22.8090 H   0  0  0  0  0  0  0  0  0  0  0  0
   30.1840    7.3910   24.3260 H   0  0  0  0  0  0  0  0  0  0  0  0
   32.5710    7.9890   24.6940 H   0  0  0  0  0  0  0  0  0  0  0  0
   33.5510    9.9300   23.4850 H   0  0  0  0  0  0  0  0  0  0  0  0
   32.1610   11.2510   21.9240 H   0  0  0  0  0  0  0  0  0  0  0  0
   28.2790    9.3440   20.5600 H   0  0  0  0  0  0  0  0  0  0  0  0
   29.7500    9.6170   19.5960 H   0  0  0  0  0  0  0  0  0  0  0  0
   28.3910   10.7620   19.4900 H   0  0  0  0  0  0  0  0  0  0  0  0
   28.7170   14.7280   24.4710 H   0  0  0  0  0  0  0  0  0  0  0  0
   25.0170   16.5650   25.7980 H   0  0  0  0  0  0  0  0  0  0  0  0
   26.2270   17.8440   26.0580 H   0  0  0  0  0  0  0  0  0  0  0  0
   25.6700   16.8540   27.4290 H   0  0  0  0  0  0  0  0  0  0  0  0
   29.4050   16.9240   24.9920 H   0  0  0  0  0  0  0  0  0  0  0  0
   30.0840   17.5450   26.5160 H   0  0  0  0  0  0  0  0  0  0  0  0
   28.5550   18.2060   25.8890 H   0  0  0  0  0  0  0  0  0  0  0  0
   24.6110   14.7520   25.6200 H   0  0  0  0  0  0  0  0  0  0  0  0
   25.9750   12.0310   22.6170 H   0  0  0  0  0  0  0  0  0  0  0  0
   24.5010   10.8820   23.7880 H   0  0  0  0  0  0  0  0  0  0  0  0
   21.7130   11.4400   23.1180 H   0  0  0  0  0  0  0  0  0  0  0  0
   22.0060    9.7570   21.4700 H   0  0  0  0  0  0  0  0  0  0  0  0
   22.8980    8.7200   22.6080 H   0  0  0  0  0  0  0  0  0  0  0  0
   22.2610   11.7970   20.7620 H   0  0  0  0  0  0  0  0  0  0  0  0
   24.6980   13.8470   17.9080 H   0  0  0  0  0  0  0  0  0  0  0  0
   26.2530   10.4660   20.0550 H   0  0  0  0  0  0  0  0  0  0  0  0
   21.1120    9.1230   24.0260 H   0  0  0  0  0  0  0  0  0  0  0  0
   23.5740    9.7150   25.3400 H   0  0  0  0  0  0  0  0  0  0  0  0
   21.6500   11.4610   25.7970 H   0  0  0  0  0  0  0  0  0  0  0  0
   20.8070    9.9770   26.3030 H   0  0  0  0  0  0  0  0  0  0  0  0
   18.4870    9.6060   25.3480 H   0  0  0  0  0  0  0  0  0  0  0  0
   17.6600   11.3620   23.4230 H   0  0  0  0  0  0  0  0  0  0  0  0
   15.3870   10.7500   25.2210 H   0  0  0  0  0  0  0  0  0  0  0  0
   15.9180   10.1810   22.2620 H   0  0  0  0  0  0  0  0  0  0  0  0
   15.1270   11.6380   22.9080 H   0  0  0  0  0  0  0  0  0  0  0  0
   14.3380   10.0510   23.0720 H   0  0  0  0  0  0  0  0  0  0  0  0
   16.7550    8.4100   23.9670 H   0  0  0  0  0  0  0  0  0  0  0  0
   15.1630    8.4260   24.7630 H   0  0  0  0  0  0  0  0  0  0  0  0
   16.6320    8.7810   25.7030 H   0  0  0  0  0  0  0  0  0  0  0  0
   16.2800   13.3950   23.6280 H   0  0  0  0  0  0  0  0  0  0  0  0
   17.8450   15.4450   25.1050 H   0  0  0  0  0  0  0  0  0  0  0  0
   13.9860   13.7360   25.6590 H   0  0  0  0  0  0  0  0  0  0  0  0
   14.8600   17.6180   27.2760 H   0  0  0  0  0  0  0  0  0  0  0  0
  1  2  2  0  0  0  0
  2  3  1  0  0  0  0
  2 12  1  0  0  0  0
  3  4  1  0  0  0  0
  3 63  1  0  0  0  0
  4  5  1  0  0  0  0
  4 11  1  0  0  0  0
  4 64  1  0  0  0  0
  5  6  1  0  0  0  0
  5 10  2  0  0  0  0
  6  7  2  0  0  0  0
  6 65  1  0  0  0  0
  7  8  1  0  0  0  0
  7 66  1  0  0  0  0
  8  9  2  0  0  0  0
  8 67  1  0  0  0  0
  9 10  1  0  0  0  0
  9 68  1  0  0  0  0
 10 69  1  0  0  0  0
 11 70  1  0  0  0  0
 11 71  1  0  0  0  0
 11 72  1  0  0  0  0
 12 13  1  0  0  0  0
 12 22  2  0  0  0  0
 13 14  2  0  0  0  0
 13 73  1  0  0  0  0
 14 15  1  0  0  0  0
 14 21  1  0  0  0  0
 15 16  1  0  0  0  0
 15 17  1  0  0  0  0
 16 74  1  0  0  0  0
 16 75  1  0  0  0  0
 16 76  1  0  0  0  0
 17 18  2  0  0  0  0
 17 19  1  0  0  0  0
 17 20  2  0  0  0  0
 19 77  1  0  0  0  0
 19 78  1  0  0  0  0
 19 79  1  0  0  0  0
 21 23  2  0  0  0  0
 21 80  1  0  0  0  0
 22 23  1  0  0  0  0
 22 81  1  0  0  0  0
 23 24  1  0  0  0  0
 24 25  2  0  0  0  0
 24 26  1  0  0  0  0
 26 27  1  0  0  0  0
 26 82  1  0  0  0  0
 27 28  1  0  0  0  0
 27 38  1  0  0  0  0
 27 83  1  0  0  0  0
 28 29  1  0  0  0  0
 28 84  1  0  0  0  0
 28 85  1  0  0  0  0
 29 30  1  0  0  0  0
 30 31  1  0  0  0  0
 30 37  2  0  0  0  0
 31 32  2  0  0  0  0
 31 86  1  0  0  0  0
 32 33  1  0  0  0  0
 32 34  1  0  0  0  0
 34 35  2  0  0  0  0
 34 87  1  0  0  0  0
 35 36  1  0  0  0  0
 35 37  1  0  0  0  0
 37 88  1  0  0  0  0
 38 39  1  0  0  0  0
 38 40  1  0  0  0  0
 38 89  1  0  0  0  0
 39 90  1  0  0  0  0
 40 41  1  0  0  0  0
 40 91  1  0  0  0  0
 40 92  1  0  0  0  0
 41 42  2  0  0  0  0
 41 43  1  0  0  0  0
 43 44  1  0  0  0  0
 43 93  1  0  0  0  0
 44 45  1  0  0  0  0
 44 48  1  0  0  0  0
 44 94  1  0  0  0  0
 45 46  1  0  0  0  0
 45 47  1  0  0  0  0
 45 95  1  0  0  0  0
 46 96  1  0  0  0  0
 46 97  1  0  0  0  0
 46 98  1  0  0  0  0
 47 99  1  0  0  0  0
 47100  1  0  0  0  0
 47101  1  0  0  0  0
 48 49  2  0  0  0  0
 48 50  1  0  0  0  0
 50 51  1  0  0  0  0
 50102  1  0  0  0  0
 51 52  2  0  0  0  0
 51 57  1  0  0  0  0
 52 53  1  0  0  0  0
 52103  1  0  0  0  0
 53 54  1  0  0  0  0
 53 59  2  0  0  0  0
 54 55  2  0  0  0  0
 54 56  1  0  0  0  0
 57 58  2  0  0  0  0
 57104  1  0  0  0  0
 58 59  1  0  0  0  0
 58 60  1  0  0  0  0
 59105  1  0  0  0  0
 60 61  2  0  0  0  0
 60 62  1  0  0  0  0
M  CHG  1  56  -1
M  CHG  1  62  -1
M  END
>  <PARENT_CMPD_ID>
3DM6

>  <STANDARD_TYPE>
IC50

>  <RELATION>
=

>  <STANDARD_VALUE>
0.037

>  <STANDARD_UNITS>
uM

>  <COMPOUND_KEY>
27

>  <PUBMED_ID>
18842420

>  <JOURNAL>
Bioorg.Med.Chem.

>  <YEAR>
2008

>  <VOLUME>
16

>  <FIRST_PAGE>
9471

>  <Company>
Linkoping

>  <Resolution>
2.5999999

>  <idx>
65

>  <Model>
Train

>  <target>
7.4317985

>  <des_pred_mlr>
8.39252

>  <RF_Canvas>
7.4821806

>  <DNN_Canvas>
6.9361968

>  <pred_CoMFA>
6.4962001

>  <pred_COMSIA>
8.7080002

>  <pred_abm5>
7.69207

>  <pred_ff8>
8.4993591

>  <pred_gau6>
8.0619516

>  <CID>
BACE_65

>  <active>
1

>  <des_class_bayes>
1

>  <maacs_class_bayes>
1

>  <radial_class_bayes>
1

>  <dend_class_bayes>
1

>  <molprint_class_bayes>
1

>  <RF_canvas>
1

>  <DNN_canvas>
1

$$$$
1YM4_5175
  MOE2015           3D

 94 94  0  0  1  0  0  0  0  0999 V2000
   31.3630   15.6900   23.4820 N   0  3  0  0  0  0  0  0  0  0  0  0
   31.1950   15.8340   22.0320 C   0  0  3  0  0  0  0  0  0  0  0  0
   30.1060   14.9560   21.5210 C   0  0  0  0  0  0  0  0  0  0  0  0
   29.6710   15.1410   20.4050 O   0  0  0  0  0  0  0  0  0  0  0  0
   32.5230   15.6190   21.2700 C   0  0  0  0  0  0  0  0  0  0  0  0
   33.1000   17.0100   20.8800 C   0  0  0  0  0  0  0  0  0  0  0  0
   34.5370   17.2050   21.3630 C   0  0  0  0  0  0  0  0  0  0  0  0
   35.2520   16.2730   21.6930 O   0  0  0  0  0  0  0  0  0  0  0  0
   34.9770   18.4740   21.3970 O   0  5  0  0  0  0  0  0  0  0  0  0
   29.6330   13.9840   22.3210 N   0  0  0  0  0  0  0  0  0  0  0  0
   28.3240   13.4110   21.9770 C   0  0  3  0  0  0  0  0  0  0  0  0
   27.4510   13.5180   23.1900 C   0  0  0  0  0  0  0  0  0  0  0  0
   27.9460   13.4590   24.3120 O   0  0  0  0  0  0  0  0  0  0  0  0
   28.3810   11.9380   21.5080 C   0  0  0  0  0  0  0  0  0  0  0  0
   29.0700   11.7950   20.1090 C   0  0  0  0  0  0  0  0  0  0  0  0
   29.1110   11.0730   22.5340 C   0  0  0  0  0  0  0  0  0  0  0  0
   26.1560   13.6860   22.9810 N   0  0  0  0  0  0  0  0  0  0  0  0
   25.2790   13.7050   24.1350 C   0  0  3  0  0  0  0  0  0  0  0  0
   24.0150   13.0730   23.6820 C   0  0  0  0  0  0  0  0  0  0  0  0
   23.0400   13.7520   23.4210 O   0  0  0  0  0  0  0  0  0  0  0  0
   25.0680   15.1900   24.6250 C   0  0  0  0  0  0  0  0  0  0  0  0
   26.2790   15.7150   25.4100 C   0  0  0  0  0  0  0  0  0  0  0  0
   26.4900   15.3220   26.5470 O   0  0  0  0  0  0  0  0  0  0  0  0
   27.0900   16.6090   24.7930 N   0  0  0  0  0  0  0  0  0  0  0  0
   24.0220   11.7360   23.5810 N   0  0  0  0  0  0  0  0  0  0  0  0
   22.8690   11.0980   22.9640 C   0  0  3  0  0  0  0  0  0  0  0  0
   21.8650   10.5350   23.9980 C   0  0  3  0  0  0  0  0  0  0  0  0
   22.4560    9.5280   24.8240 O   0  0  0  0  0  0  0  0  0  0  0  0
   21.2850   11.6110   24.8920 C   0  0  3  0  0  0  0  0  0  0  0  0
   20.0970   10.9100   25.6280 C   0  0  3  0  0  0  0  0  0  0  0  0
   20.1760   11.3320   27.0910 C   0  0  0  0  0  0  0  0  0  0  0  0
   21.6640   11.6090   27.3630 C   0  0  0  0  0  0  0  0  0  0  0  0
   22.3180   11.9570   25.9940 C   0  0  0  0  0  0  0  0  0  0  0  0
   18.7690   11.2620   25.0000 C   0  0  0  0  0  0  0  0  0  0  0  0
   18.5760   12.3880   24.5720 O   0  0  0  0  0  0  0  0  0  0  0  0
   23.3510    9.9930   21.9860 C   0  0  0  0  0  0  0  0  0  0  0  0
   24.1750   10.6570   20.8660 C   0  0  0  0  0  0  0  0  0  0  0  0
   23.2250   11.4250   19.9190 C   0  0  0  0  0  0  0  0  0  0  0  0
   24.9580    9.5930   20.0600 C   0  0  0  0  0  0  0  0  0  0  0  0
   17.8450   10.2970   24.9390 N   0  0  0  0  0  0  0  0  0  0  0  0
   16.5290   10.6500   24.4030 C   0  0  3  0  0  0  0  0  0  0  0  0
   15.7890   11.4590   25.4390 C   0  0  0  0  0  0  0  0  0  0  0  0
   14.4710   11.5420   25.2850 O   0  0  0  0  0  0  0  0  0  0  0  0
   15.7460    9.3860   24.0700 C   0  0  0  0  0  0  0  0  0  0  0  0
   16.3700   11.9980   26.3780 O   0  5  0  0  0  0  0  0  0  0  0  0
   30.4750   15.8380   23.9400 H   0  0  0  0  0  0  0  0  0  0  0  0
   32.0300   16.3720   23.8130 H   0  0  0  0  0  0  0  0  0  0  0  0
   31.6990   14.7610   23.6910 H   0  0  0  0  0  0  0  0  0  0  0  0
   30.8930   16.8640   21.8420 H   0  0  0  0  0  0  0  0  0  0  0  0
   32.3400   15.0320   20.3700 H   0  0  0  0  0  0  0  0  0  0  0  0
   33.2320   15.0930   21.9090 H   0  0  0  0  0  0  0  0  0  0  0  0
   32.4740   17.7850   21.3230 H   0  0  0  0  0  0  0  0  0  0  0  0
   33.0800   17.1040   19.7940 H   0  0  0  0  0  0  0  0  0  0  0  0
   30.1550   13.6620   23.1240 H   0  0  0  0  0  0  0  0  0  0  0  0
   27.9300   13.9730   21.1300 H   0  0  0  0  0  0  0  0  0  0  0  0
   27.3510   11.5940   21.4130 H   0  0  0  0  0  0  0  0  0  0  0  0
   30.1040   12.1340   20.1770 H   0  0  0  0  0  0  0  0  0  0  0  0
   28.5360   12.4020   19.3770 H   0  0  0  0  0  0  0  0  0  0  0  0
   29.0500   10.7500   19.7990 H   0  0  0  0  0  0  0  0  0  0  0  0
   30.1410   11.4160   22.6310 H   0  0  0  0  0  0  0  0  0  0  0  0
   29.1030   10.0340   22.2050 H   0  0  0  0  0  0  0  0  0  0  0  0
   28.6100   11.1520   23.4990 H   0  0  0  0  0  0  0  0  0  0  0  0
   25.7890   13.7980   22.0460 H   0  0  0  0  0  0  0  0  0  0  0  0
   25.6890   13.1640   24.9880 H   0  0  0  0  0  0  0  0  0  0  0  0
   24.1890   15.2270   25.2680 H   0  0  0  0  0  0  0  0  0  0  0  0
   24.9090   15.8280   23.7560 H   0  0  0  0  0  0  0  0  0  0  0  0
   27.9000   16.9720   25.2750 H   0  0  0  0  0  0  0  0  0  0  0  0
   26.8840   16.9120   23.8520 H   0  0  0  0  0  0  0  0  0  0  0  0
   24.8080   11.1810   23.9000 H   0  0  0  0  0  0  0  0  0  0  0  0
   22.3240   11.8620   22.4100 H   0  0  0  0  0  0  0  0  0  0  0  0
   21.0610   10.0970   23.4070 H   0  0  0  0  0  0  0  0  0  0  0  0
   23.1580    9.9430   25.3310 H   0  0  0  0  0  0  0  0  0  0  0  0
   21.0090   12.5020   24.3280 H   0  0  0  0  0  0  0  0  0  0  0  0
   20.1730    9.8260   25.5450 H   0  0  0  0  0  0  0  0  0  0  0  0
   19.8140   10.5330   27.7370 H   0  0  0  0  0  0  0  0  0  0  0  0
   19.5850   12.2320   27.2600 H   0  0  0  0  0  0  0  0  0  0  0  0
   22.1380   10.7250   27.7910 H   0  0  0  0  0  0  0  0  0  0  0  0
   21.7690   12.4470   28.0520 H   0  0  0  0  0  0  0  0  0  0  0  0
   22.5630   13.0180   25.9560 H   0  0  0  0  0  0  0  0  0  0  0  0
   23.2250   11.3690   25.8530 H   0  0  0  0  0  0  0  0  0  0  0  0
   22.4900    9.4820   21.5550 H   0  0  0  0  0  0  0  0  0  0  0  0
   23.9710    9.2730   22.5210 H   0  0  0  0  0  0  0  0  0  0  0  0
   24.8890   11.3460   21.3170 H   0  0  0  0  0  0  0  0  0  0  0  0
   22.5150   10.7280   19.4730 H   0  0  0  0  0  0  0  0  0  0  0  0
   23.8070   11.9050   19.1320 H   0  0  0  0  0  0  0  0  0  0  0  0
   22.6830   12.1830   20.4840 H   0  0  0  0  0  0  0  0  0  0  0  0
   24.2570    8.8950   19.6020 H   0  0  0  0  0  0  0  0  0  0  0  0
   25.6270    9.0500   20.7280 H   0  0  0  0  0  0  0  0  0  0  0  0
   25.5420   10.0840   19.2820 H   0  0  0  0  0  0  0  0  0  0  0  0
   18.0480    9.3580   25.2520 H   0  0  0  0  0  0  0  0  0  0  0  0
   16.6450   11.2350   23.4900 H   0  0  0  0  0  0  0  0  0  0  0  0
   15.6210    8.7880   24.9730 H   0  0  0  0  0  0  0  0  0  0  0  0
   16.2900    8.8070   23.3240 H   0  0  0  0  0  0  0  0  0  0  0  0
   14.7670    9.6580   23.6760 H   0  0  0  0  0  0  0  0  0  0  0  0
  1  2  1  0  0  0  0
  1 46  1  0  0  0  0
  1 47  1  0  0  0  0
  1 48  1  0  0  0  0
  2  3  1  0  0  0  0
  2  5  1  0  0  0  0
  2 49  1  0  0  0  0
  3  4  2  0  0  0  0
  3 10  1  0  0  0  0
  5  6  1  0  0  0  0
  5 50  1  0  0  0  0
  5 51  1  0  0  0  0
  6  7  1  0  0  0  0
  6 52  1  0  0  0  0
  6 53  1  0  0  0  0
  7  8  2  0  0  0  0
  7  9  1  0  0  0  0
 10 11  1  0  0  0  0
 10 54  1  0  0  0  0
 11 12  1  0  0  0  0
 11 14  1  0  0  0  0
 11 55  1  0  0  0  0
 12 13  2  0  0  0  0
 12 17  1  0  0  0  0
 14 15  1  0  0  0  0
 14 16  1  0  0  0  0
 14 56  1  0  0  0  0
 15 57  1  0  0  0  0
 15 58  1  0  0  0  0
 15 59  1  0  0  0  0
 16 60  1  0  0  0  0
 16 61  1  0  0  0  0
 16 62  1  0  0  0  0
 17 18  1  0  0  0  0
 17 63  1  0  0  0  0
 18 19  1  0  0  0  0
 18 21  1  0  0  0  0
 18 64  1  0  0  0  0
 19 20  2  0  0  0  0
 19 25  1  0  0  0  0
 21 22  1  0  0  0  0
 21 65  1  0  0  0  0
 21 66  1  0  0  0  0
 22 23  2  0  0  0  0
 22 24  1  0  0  0  0
 24 67  1  0  0  0  0
 24 68  1  0  0  0  0
 25 26  1  0  0  0  0
 25 69  1  0  0  0  0
 26 27  1  0  0  0  0
 26 36  1  0  0  0  0
 26 70  1  0  0  0  0
 27 28  1  0  0  0  0
 27 29  1  0  0  0  0
 27 71  1  0  0  0  0
 28 72  1  0  0  0  0
 29 30  1  0  0  0  0
 29 33  1  0  0  0  0
 29 73  1  0  0  0  0
 30 31  1  0  0  0  0
 30 34  1  0  0  0  0
 30 74  1  0  0  0  0
 31 32  1  0  0  0  0
 31 75  1  0  0  0  0
 31 76  1  0  0  0  0
 32 33  1  0  0  0  0
 32 77  1  0  0  0  0
 32 78  1  0  0  0  0
 33 79  1  0  0  0  0
 33 80  1  0  0  0  0
 34 35  2  0  0  0  0
 34 40  1  0  0  0  0
 36 37  1  0  0  0  0
 36 81  1  0  0  0  0
 36 82  1  0  0  0  0
 37 38  1  0  0  0  0
 37 39  1  0  0  0  0
 37 83  1  0  0  0  0
 38 84  1  0  0  0  0
 38 85  1  0  0  0  0
 38 86  1  0  0  0  0
 39 87  1  0  0  0  0
 39 88  1  0  0  0  0
 39 89  1  0  0  0  0
 40 41  1  0  0  0  0
 40 90  1  0  0  0  0
 41 42  1  0  0  0  0
 41 44  1  0  0  0  0
 41 91  1  0  0  0  0
 42 43  2  0  0  0  0
 42 45  1  0  0  0  0
 44 92  1  0  0  0  0
 44 93  1  0  0  0  0
 44 94  1  0  0  0  0
M  CHG  1   1   1
M  CHG  1   9  -1
M  CHG  1  45  -1
M  END
>  <PARENT_CMPD_ID>
1YM4

>  <STANDARD_TYPE>
IC50

>  <RELATION>
=

>  <STANDARD_VALUE>
0.039000001

>  <STANDARD_UNITS>
uM

>  <COMPOUND_KEY>
5

>  <PUBMED_ID>
16078837

>  <JOURNAL>
J.Med.Chem.

>  <YEAR>
2005

>  <VOLUME>
48

>  <FIRST_PAGE>
5175

>  <Company>
U.Montreal

>  <Resolution>
2.25

>  <idx>
66

>  <Model>
Train

>  <target>
7.4089355

>  <des_pred_mlr>
6.3369098

>  <RF_Canvas>
7.3396897

>  <DNN_Canvas>
7.3850474

>  <pred_CoMFA>
7.349

>  <pred_COMSIA>
6.4341002

>  <pred_abm5>
7.2055573

>  <pred_ff8>
4.7733684

>  <pred_gau6>
7.4696817

>  <CID>
BACE_66

>  <active>
1

>  <des_class_bayes>
1

>  <maacs_class_bayes>
0

>  <radial_class_bayes>
1

>  <dend_class_bayes>
1

>  <molprint_class_bayes>
1

>  <RF_canvas>
1

>  <DNN_canvas>
1

$$$$
2VJ7_1017
  MOE2015           3D

 77 80  0  0  1  0  0  0  0  0999 V2000
   28.1200   13.2450   22.8840 C   0  0  0  0  0  0  0  0  0  0  0  0
   26.7870   12.7700   22.7270 C   0  0  0  0  0  0  0  0  0  0  0  0
   25.7270   13.3070   23.5090 C   0  0  0  0  0  0  0  0  0  0  0  0
   26.0040   14.3280   24.4470 C   0  0  0  0  0  0  0  0  0  0  0  0
   27.3280   14.8160   24.6160 C   0  0  0  0  0  0  0  0  0  0  0  0
   28.3730   14.2600   23.8200 C   0  0  0  0  0  0  0  0  0  0  0  0
   24.3470   12.8340   23.3480 C   0  0  0  0  0  0  0  0  0  0  0  0
   24.2240   11.5230   23.0690 N   0  0  0  0  0  0  0  0  0  0  0  0
   23.3630   13.5730   23.4180 O   0  0  0  0  0  0  0  0  0  0  0  0
   22.9320   10.8960   22.8270 C   0  0  3  0  0  0  0  0  0  0  0  0
   22.8540   10.2440   21.4190 C   0  0  0  0  0  0  0  0  0  0  0  0
   22.4340   10.0390   24.0230 C   0  0  3  0  0  0  0  0  0  0  0  0
   21.3760    9.1950   23.6450 O   0  0  0  0  0  0  0  0  0  0  0  0
   24.0400   10.5050   20.5080 C   0  0  0  0  0  0  0  0  0  0  0  0
   21.8870   10.9420   25.1230 C   0  0  0  0  0  0  0  0  0  0  0  0
   21.3380   10.2040   26.2670 N   0  3  0  0  0  0  0  0  0  0  0  0
   25.1160    9.5920   20.3400 C   0  0  0  0  0  0  0  0  0  0  0  0
   26.1780    9.9090   19.4580 C   0  0  0  0  0  0  0  0  0  0  0  0
   26.1750   11.1290   18.7380 C   0  0  0  0  0  0  0  0  0  0  0  0
   25.1120   12.0400   18.8990 C   0  0  0  0  0  0  0  0  0  0  0  0
   24.0550   11.7270   19.7750 C   0  0  0  0  0  0  0  0  0  0  0  0
   29.1860   12.7640   22.1550 N   0  0  0  0  0  0  0  0  0  0  0  0
   29.0950   11.7920   21.0600 C   0  0  0  0  0  0  0  0  0  0  0  0
   29.3930   10.3870   21.5870 C   0  0  0  0  0  0  0  0  0  0  0  0
   27.5810   15.8190   25.5320 N   0  0  0  0  0  0  0  0  0  0  0  0
   28.5450   15.7860   26.5020 C   0  0  0  0  0  0  0  0  0  0  0  0
   28.5030   17.0850   27.3060 C   0  0  0  0  0  0  0  0  0  0  0  0
   27.6480   18.0030   26.4360 C   0  0  0  0  0  0  0  0  0  0  0  0
   26.8180   17.0690   25.5670 C   0  0  0  0  0  0  0  0  0  0  0  0
   29.3380   14.8790   26.7210 O   0  0  0  0  0  0  0  0  0  0  0  0
   20.3460   10.9820   27.0580 C   0  0  0  0  0  0  0  0  0  0  0  0
   19.1860   11.5590   26.2560 C   0  0  0  0  0  0  0  0  0  0  0  0
   18.9920   12.9650   26.2070 C   0  0  0  0  0  0  0  0  0  0  0  0
   17.9250   13.5220   25.4650 C   0  0  0  0  0  0  0  0  0  0  0  0
   17.0350   12.6820   24.7590 C   0  0  0  0  0  0  0  0  0  0  0  0
   17.1910   11.2500   24.7800 C   0  0  0  0  0  0  0  0  0  0  0  0
   18.2930   10.7180   25.5490 C   0  0  0  0  0  0  0  0  0  0  0  0
   16.2130   10.2990   24.0020 C   0  0  0  0  0  0  0  0  0  0  0  0
   15.8150    9.3140   24.8070 F   0  0  0  0  0  0  0  0  0  0  0  0
   16.8700    9.7990   22.9720 F   0  0  0  0  0  0  0  0  0  0  0  0
   15.1360   10.9460   23.5540 F   0  0  0  0  0  0  0  0  0  0  0  0
   26.5780   11.9930   22.0060 H   0  0  0  0  0  0  0  0  0  0  0  0
   25.2020   14.7410   25.0410 H   0  0  0  0  0  0  0  0  0  0  0  0
   29.3810   14.6280   23.9400 H   0  0  0  0  0  0  0  0  0  0  0  0
   25.0570   10.9540   23.0260 H   0  0  0  0  0  0  0  0  0  0  0  0
   22.1800   11.6840   22.7840 H   0  0  0  0  0  0  0  0  0  0  0  0
   21.9600   10.6230   20.9230 H   0  0  0  0  0  0  0  0  0  0  0  0
   22.7650    9.1660   21.5530 H   0  0  0  0  0  0  0  0  0  0  0  0
   23.2870    9.4530   24.3650 H   0  0  0  0  0  0  0  0  0  0  0  0
   20.6510    9.7520   23.3520 H   0  0  0  0  0  0  0  0  0  0  0  0
   21.0960   11.5610   24.7000 H   0  0  0  0  0  0  0  0  0  0  0  0
   22.6960   11.5800   25.4800 H   0  0  0  0  0  0  0  0  0  0  0  0
   22.1010    9.9460   26.8770 H   0  0  0  0  0  0  0  0  0  0  0  0
   20.8870    9.3690   25.9210 H   0  0  0  0  0  0  0  0  0  0  0  0
   25.1240    8.6590   20.8830 H   0  0  0  0  0  0  0  0  0  0  0  0
   26.9960    9.2150   19.3330 H   0  0  0  0  0  0  0  0  0  0  0  0
   26.9880   11.3610   18.0660 H   0  0  0  0  0  0  0  0  0  0  0  0
   25.1080   12.9720   18.3540 H   0  0  0  0  0  0  0  0  0  0  0  0
   23.2400   12.4260   19.8940 H   0  0  0  0  0  0  0  0  0  0  0  0
   30.1050   13.1090   22.3940 H   0  0  0  0  0  0  0  0  0  0  0  0
   29.8190   12.0490   20.2870 H   0  0  0  0  0  0  0  0  0  0  0  0
   28.0900   11.8150   20.6390 H   0  0  0  0  0  0  0  0  0  0  0  0
   30.3980   10.3630   22.0090 H   0  0  0  0  0  0  0  0  0  0  0  0
   29.3250    9.6700   20.7690 H   0  0  0  0  0  0  0  0  0  0  0  0
   28.6690   10.1270   22.3590 H   0  0  0  0  0  0  0  0  0  0  0  0
   29.5040   17.4940   27.4410 H   0  0  0  0  0  0  0  0  0  0  0  0
   28.0410   16.9270   28.2800 H   0  0  0  0  0  0  0  0  0  0  0  0
   28.2790   18.6410   25.8170 H   0  0  0  0  0  0  0  0  0  0  0  0
   27.0010   18.6240   27.0560 H   0  0  0  0  0  0  0  0  0  0  0  0
   25.8340   16.9070   26.0070 H   0  0  0  0  0  0  0  0  0  0  0  0
   26.7040   17.4780   24.5630 H   0  0  0  0  0  0  0  0  0  0  0  0
   20.8700   11.8100   27.5360 H   0  0  0  0  0  0  0  0  0  0  0  0
   19.9330   10.3240   27.8220 H   0  0  0  0  0  0  0  0  0  0  0  0
   19.6670   13.6160   26.7430 H   0  0  0  0  0  0  0  0  0  0  0  0
   17.7900   14.5930   25.4380 H   0  0  0  0  0  0  0  0  0  0  0  0
   16.2250   13.1200   24.1950 H   0  0  0  0  0  0  0  0  0  0  0  0
   18.4390    9.6490   25.5850 H   0  0  0  0  0  0  0  0  0  0  0  0
  1  2  1  0  0  0  0
  1  6  2  0  0  0  0
  1 22  1  0  0  0  0
  2  3  2  0  0  0  0
  2 42  1  0  0  0  0
  3  4  1  0  0  0  0
  3  7  1  0  0  0  0
  4  5  2  0  0  0  0
  4 43  1  0  0  0  0
  5  6  1  0  0  0  0
  5 25  1  0  0  0  0
  6 44  1  0  0  0  0
  7  8  1  0  0  0  0
  7  9  2  0  0  0  0
  8 10  1  0  0  0  0
  8 45  1  0  0  0  0
 10 11  1  0  0  0  0
 10 12  1  0  0  0  0
 10 46  1  0  0  0  0
 11 14  1  0  0  0  0
 11 47  1  0  0  0  0
 11 48  1  0  0  0  0
 12 13  1  0  0  0  0
 12 15  1  0  0  0  0
 12 49  1  0  0  0  0
 13 50  1  0  0  0  0
 14 17  1  0  0  0  0
 14 21  2  0  0  0  0
 15 16  1  0  0  0  0
 15 51  1  0  0  0  0
 15 52  1  0  0  0  0
 16 31  1  0  0  0  0
 16 53  1  0  0  0  0
 16 54  1  0  0  0  0
 17 18  2  0  0  0  0
 17 55  1  0  0  0  0
 18 19  1  0  0  0  0
 18 56  1  0  0  0  0
 19 20  2  0  0  0  0
 19 57  1  0  0  0  0
 20 21  1  0  0  0  0
 20 58  1  0  0  0  0
 21 59  1  0  0  0  0
 22 23  1  0  0  0  0
 22 60  1  0  0  0  0
 23 24  1  0  0  0  0
 23 61  1  0  0  0  0
 23 62  1  0  0  0  0
 24 63  1  0  0  0  0
 24 64  1  0  0  0  0
 24 65  1  0  0  0  0
 25 26  1  0  0  0  0
 25 29  1  0  0  0  0
 26 27  1  0  0  0  0
 26 30  2  0  0  0  0
 27 28  1  0  0  0  0
 27 66  1  0  0  0  0
 27 67  1  0  0  0  0
 28 29  1  0  0  0  0
 28 68  1  0  0  0  0
 28 69  1  0  0  0  0
 29 70  1  0  0  0  0
 29 71  1  0  0  0  0
 31 32  1  0  0  0  0
 31 72  1  0  0  0  0
 31 73  1  0  0  0  0
 32 33  1  0  0  0  0
 32 37  2  0  0  0  0
 33 34  2  0  0  0  0
 33 74  1  0  0  0  0
 34 35  1  0  0  0  0
 34 75  1  0  0  0  0
 35 36  2  0  0  0  0
 35 76  1  0  0  0  0
 36 37  1  0  0  0  0
 36 38  1  0  0  0  0
 37 77  1  0  0  0  0
 38 39  1  0  0  0  0
 38 40  1  0  0  0  0
 38 41  1  0  0  0  0
M  CHG  1  16   1
M  END
>  <PARENT_CMPD_ID>
2VJ7

>  <STANDARD_TYPE>
IC50

>  <RELATION>
=

>  <STANDARD_VALUE>
0.039999999

>  <STANDARD_UNITS>
uM

>  <COMPOUND_KEY>
16

>  <PUBMED_ID>
18166458

>  <JOURNAL>
Bioorg.Med.Chem.Lett.

>  <YEAR>
2008

>  <VOLUME>
18

>  <FIRST_PAGE>
1017

>  <Company>
GSK

>  <Resolution>
1.6

>  <idx>
67

>  <Model>
Train

>  <target>
7.3979402

>  <des_pred_mlr>
6.70222

>  <RF_Canvas>
7.4884162

>  <DNN_Canvas>
6.9800801

>  <pred_CoMFA>
7.0998001

>  <pred_COMSIA>
7.1433001

>  <pred_abm5>
7.2768817

>  <pred_ff8>
6.9297571

>  <pred_gau6>
7.2241087

>  <CID>
BACE_67

>  <active>
1

>  <des_class_bayes>
1

>  <maacs_class_bayes>
1

>  <radial_class_bayes>
1

>  <dend_class_bayes>
1

>  <molprint_class_bayes>
1

>  <RF_canvas>
1

>  <DNN_canvas>
1

$$$$
3INF_1146
  MOE2015           3D

 51 54  0  0  1  0  0  0  0  0999 V2000
   17.7500   12.3830   20.2580 C   0  0  0  0  0  0  0  0  0  0  0  0
   22.5530   11.0510   23.8950 N   0  0  0  0  0  0  0  0  0  0  0  0
   16.8590    9.8140   19.6600 O   0  0  0  0  0  0  0  0  0  0  0  0
   18.6190   11.1680   20.4430 C   0  0  0  0  0  0  0  0  0  0  0  0
   22.5860    9.2690   22.5440 N   0  0  0  0  0  0  0  0  0  0  0  0
   22.1280   12.7710   22.4180 O   0  0  0  0  0  0  0  0  0  0  0  0
   19.9230   11.3320   20.9350 C   0  0  0  0  0  0  0  0  0  0  0  0
   22.8430    8.8880   24.8620 N   0  0  0  0  0  0  0  0  0  0  0  0
   20.7770   10.2380   21.1260 C   0  0  0  0  0  0  0  0  0  0  0  0
   28.7130    9.7060   21.9370 N   0  0  0  0  0  0  0  0  0  0  0  0
   20.2880    8.9640   20.8080 C   0  0  0  0  0  0  0  0  0  0  0  0
   18.9890    8.7830   20.3140 C   0  0  0  0  0  0  0  0  0  0  0  0
   18.1460    9.8810   20.1280 C   0  0  0  0  0  0  0  0  0  0  0  0
   16.1870    8.5600   19.7210 C   0  0  0  0  0  0  0  0  0  0  0  0
   22.2010   10.4250   21.6720 C   0  0  3  0  0  0  0  0  0  0  0  0
   22.2640   11.5870   22.6770 C   0  0  0  0  0  0  0  0  0  0  0  0
   22.6530    9.6980   23.7710 C   0  0  0  0  0  0  0  0  0  0  0  0
   22.7080   11.8450   25.1110 C   0  0  0  0  0  0  0  0  0  0  0  0
   23.2440   10.6430   20.5630 C   0  0  0  0  0  0  0  0  0  0  0  0
   22.9490   10.8710   19.2070 C   0  0  0  0  0  0  0  0  0  0  0  0
   23.9850   11.0580   18.2780 C   0  0  0  0  0  0  0  0  0  0  0  0
   25.3250   11.0320   18.6730 C   0  0  0  0  0  0  0  0  0  0  0  0
   25.6480   10.8070   20.0240 C   0  0  0  0  0  0  0  0  0  0  0  0
   24.5960   10.6220   20.9380 C   0  0  0  0  0  0  0  0  0  0  0  0
   27.0300   10.7720   20.5310 C   0  0  0  0  0  0  0  0  0  0  0  0
   27.9890   11.7190   20.1450 C   0  0  0  0  0  0  0  0  0  0  0  0
   29.2910   11.6580   20.6480 C   0  0  0  0  0  0  0  0  0  0  0  0
   29.6040   10.6410   21.5360 C   0  0  0  0  0  0  0  0  0  0  0  0
   27.4540    9.7920   21.4340 C   0  0  0  0  0  0  0  0  0  0  0  0
   18.3020   13.2740   20.5580 H   0  0  0  0  0  0  0  0  0  0  0  0
   16.8550   12.2860   20.8720 H   0  0  0  0  0  0  0  0  0  0  0  0
   17.4640   12.4690   19.2100 H   0  0  0  0  0  0  0  0  0  0  0  0
   20.2760   12.3250   21.1720 H   0  0  0  0  0  0  0  0  0  0  0  0
   22.9410    7.8900   24.7390 H   0  0  0  0  0  0  0  0  0  0  0  0
   22.8850    9.2890   25.7880 H   0  0  0  0  0  0  0  0  0  0  0  0
   20.9260    8.1030   20.9460 H   0  0  0  0  0  0  0  0  0  0  0  0
   18.6380    7.7900   20.0760 H   0  0  0  0  0  0  0  0  0  0  0  0
   15.1810    8.6670   19.3150 H   0  0  0  0  0  0  0  0  0  0  0  0
   16.1270    8.2300   20.7580 H   0  0  0  0  0  0  0  0  0  0  0  0
   16.7380    7.8240   19.1360 H   0  0  0  0  0  0  0  0  0  0  0  0
   22.5680   12.9000   24.8760 H   0  0  0  0  0  0  0  0  0  0  0  0
   23.7070   11.6930   25.5190 H   0  0  0  0  0  0  0  0  0  0  0  0
   21.9640   11.5340   25.8450 H   0  0  0  0  0  0  0  0  0  0  0  0
   21.9210   10.9020   18.8790 H   0  0  0  0  0  0  0  0  0  0  0  0
   23.7420   11.2250   17.2390 H   0  0  0  0  0  0  0  0  0  0  0  0
   26.1090   11.1840   17.9450 H   0  0  0  0  0  0  0  0  0  0  0  0
   24.8400   10.4560   21.9770 H   0  0  0  0  0  0  0  0  0  0  0  0
   27.7190   12.5030   19.4530 H   0  0  0  0  0  0  0  0  0  0  0  0
   30.0340   12.3840   20.3530 H   0  0  0  0  0  0  0  0  0  0  0  0
   30.6090   10.5930   21.9270 H   0  0  0  0  0  0  0  0  0  0  0  0
   26.7320    9.0540   21.7530 H   0  0  0  0  0  0  0  0  0  0  0  0
  1  4  1  0  0  0  0
  1 30  1  0  0  0  0
  1 31  1  0  0  0  0
  1 32  1  0  0  0  0
  2 16  1  0  0  0  0
  2 17  1  0  0  0  0
  2 18  1  0  0  0  0
  3 13  1  0  0  0  0
  3 14  1  0  0  0  0
  4  7  1  0  0  0  0
  4 13  2  0  0  0  0
  5 15  1  0  0  0  0
  5 17  2  0  0  0  0
  6 16  2  0  0  0  0
  7  9  2  0  0  0  0
  7 33  1  0  0  0  0
  8 17  1  0  0  0  0
  8 34  1  0  0  0  0
  8 35  1  0  0  0  0
  9 11  1  0  0  0  0
  9 15  1  0  0  0  0
 10 28  2  0  0  0  0
 10 29  1  0  0  0  0
 11 12  2  0  0  0  0
 11 36  1  0  0  0  0
 12 13  1  0  0  0  0
 12 37  1  0  0  0  0
 14 38  1  0  0  0  0
 14 39  1  0  0  0  0
 14 40  1  0  0  0  0
 15 16  1  0  0  0  0
 15 19  1  0  0  0  0
 18 41  1  0  0  0  0
 18 42  1  0  0  0  0
 18 43  1  0  0  0  0
 19 20  1  0  0  0  0
 19 24  2  0  0  0  0
 20 21  2  0  0  0  0
 20 44  1  0  0  0  0
 21 22  1  0  0  0  0
 21 45  1  0  0  0  0
 22 23  2  0  0  0  0
 22 46  1  0  0  0  0
 23 24  1  0  0  0  0
 23 25  1  0  0  0  0
 24 47  1  0  0  0  0
 25 26  1  0  0  0  0
 25 29  2  0  0  0  0
 26 27  2  0  0  0  0
 26 48  1  0  0  0  0
 27 28  1  0  0  0  0
 27 49  1  0  0  0  0
 28 50  1  0  0  0  0
 29 51  1  0  0  0  0
M  END
>  <PARENT_CMPD_ID>
3INF

>  <STANDARD_TYPE>
IC50

>  <RELATION>
=

>  <STANDARD_VALUE>
0.039999999

>  <STANDARD_UNITS>
uM

>  <COMPOUND_KEY>
37

>  <PUBMED_ID>
19968289

>  <JOURNAL>
J.Med.Chem.

>  <YEAR>
2010

>  <VOLUME>
53

>  <FIRST_PAGE>
1146

>  <Company>
Wyeth

>  <Resolution>
1.85

>  <idx>
68

>  <Model>
Train

>  <target>
7.3979402

>  <des_pred_mlr>
6.4730802

>  <RF_Canvas>
7.3486576

>  <DNN_Canvas>
7.3745909

>  <pred_CoMFA>
7.5707998

>  <pred_COMSIA>
6.9001999

>  <pred_abm5>
7.5831289

>  <pred_ff8>
6.3105278

>  <pred_gau6>
7.3958635

>  <CID>
BACE_68

>  <active>
1

>  <des_class_bayes>
1

>  <maacs_class_bayes>
0

>  <radial_class_bayes>
1

>  <dend_class_bayes>
1

>  <molprint_class_bayes>
1

>  <RF_canvas>
1

>  <DNN_canvas>
1

$$$$
4J1I_3980
  MOE2015           3D

 45 47  0  0  1  0  0  0  0  0999 V2000
   25.1460   11.4730   19.2880 C   0  0  0  0  0  0  0  0  0  0  0  0
   21.5830   12.0450   23.5710 C   0  0  3  0  0  0  0  0  0  0  0  0
   22.4800    9.8260   23.9200 C   0  0  0  0  0  0  0  0  0  0  0  0
   23.8580   11.8590   18.9200 C   0  0  0  0  0  0  0  0  0  0  0  0
   24.1820   10.2440   21.2210 C   0  0  0  0  0  0  0  0  0  0  0  0
   22.9130   10.6380   20.8660 C   0  0  0  0  0  0  0  0  0  0  0  0
   25.2950   10.6390   20.4450 C   0  0  0  0  0  0  0  0  0  0  0  0
   20.9720   11.4300   22.2890 C   0  0  3  0  0  0  0  0  0  0  0  0
   27.7690   10.5210   20.3690 C   0  0  0  0  0  0  0  0  0  0  0  0
   28.9580   10.0710   21.1440 C   0  0  0  0  0  0  0  0  0  0  0  0
   20.6850    9.4930   20.7920 C   0  0  0  0  0  0  0  0  0  0  0  0
   22.7600   11.4390   19.7100 C   0  0  0  0  0  0  0  0  0  0  0  0
   21.7120   10.2180   21.6800 C   0  0  3  0  0  0  0  0  0  0  0  0
   22.4900   11.1390   24.2200 O   0  0  0  0  0  0  0  0  0  0  0  0
   22.1560    9.3390   22.7570 N   0  0  0  0  0  0  0  0  0  0  0  0
   21.5160   11.8180   19.3420 F   0  0  0  0  0  0  0  0  0  0  0  0
   21.4820   14.1760   22.6310 F   0  0  0  0  0  0  0  0  0  0  0  0
   22.8130   13.8900   24.3900 F   0  0  0  0  0  0  0  0  0  0  0  0
   23.4920   13.1460   22.5050 F   0  0  0  0  0  0  0  0  0  0  0  0
   19.7700   10.9290   22.7610 F   0  0  0  0  0  0  0  0  0  0  0  0
   22.9370    8.9860   24.8990 N   0  0  0  0  0  0  0  0  0  0  0  0
   26.5560   10.2580   20.9180 N   0  0  0  0  0  0  0  0  0  0  0  0
   27.8640   11.1800   19.3490 O   0  0  0  0  0  0  0  0  0  0  0  0
   30.1820   10.7540   21.0290 C   0  0  0  0  0  0  0  0  0  0  0  0
   31.2430   10.3270   21.8470 C   0  0  0  0  0  0  0  0  0  0  0  0
   31.0070    9.2700   22.7690 C   0  0  0  0  0  0  0  0  0  0  0  0
   29.7460    8.6680   22.8160 C   0  0  0  0  0  0  0  0  0  0  0  0
   28.8010    9.1190   22.0310 N   0  0  0  0  0  0  0  0  0  0  0  0
   32.0580    8.7810   23.6190 C   0  0  0  0  0  0  0  0  0  0  0  0
   32.8930    8.3940   24.2850 N   0  0  0  0  0  0  0  0  0  0  0  0
   22.3450   13.3220   23.2500 C   0  0  0  0  0  0  0  0  0  0  0  0
   26.0060   11.7930   18.7190 H   0  0  0  0  0  0  0  0  0  0  0  0
   20.7470   12.2590   24.2370 H   0  0  0  0  0  0  0  0  0  0  0  0
   23.6990   12.4700   18.0440 H   0  0  0  0  0  0  0  0  0  0  0  0
   24.3290    9.6300   22.0970 H   0  0  0  0  0  0  0  0  0  0  0  0
   20.9660   12.1870   21.5050 H   0  0  0  0  0  0  0  0  0  0  0  0
   20.3620   10.1590   19.9920 H   0  0  0  0  0  0  0  0  0  0  0  0
   19.8240    9.2040   21.3940 H   0  0  0  0  0  0  0  0  0  0  0  0
   21.1420    8.6030   20.3600 H   0  0  0  0  0  0  0  0  0  0  0  0
   23.0210    7.9960   24.7170 H   0  0  0  0  0  0  0  0  0  0  0  0
   23.1900    9.3560   25.8040 H   0  0  0  0  0  0  0  0  0  0  0  0
   26.5640    9.7210   21.7730 H   0  0  0  0  0  0  0  0  0  0  0  0
   30.3020   11.5760   20.3380 H   0  0  0  0  0  0  0  0  0  0  0  0
   32.2160   10.7910   21.7770 H   0  0  0  0  0  0  0  0  0  0  0  0
   29.5550    7.8450   23.4890 H   0  0  0  0  0  0  0  0  0  0  0  0
  1  4  1  0  0  0  0
  1  7  2  0  0  0  0
  1 32  1  0  0  0  0
  2  8  1  0  0  0  0
  2 14  1  0  0  0  0
  2 31  1  0  0  0  0
  2 33  1  0  0  0  0
  3 14  1  0  0  0  0
  3 15  2  0  0  0  0
  3 21  1  0  0  0  0
  4 12  2  0  0  0  0
  4 34  1  0  0  0  0
  5  6  2  0  0  0  0
  5  7  1  0  0  0  0
  5 35  1  0  0  0  0
  6 12  1  0  0  0  0
  6 13  1  0  0  0  0
  7 22  1  0  0  0  0
  8 13  1  0  0  0  0
  8 20  1  0  0  0  0
  8 36  1  0  0  0  0
  9 10  1  0  0  0  0
  9 22  1  0  0  0  0
  9 23  2  0  0  0  0
 10 24  1  0  0  0  0
 10 28  2  0  0  0  0
 11 13  1  0  0  0  0
 11 37  1  0  0  0  0
 11 38  1  0  0  0  0
 11 39  1  0  0  0  0
 12 16  1  0  0  0  0
 13 15  1  0  0  0  0
 17 31  1  0  0  0  0
 18 31  1  0  0  0  0
 19 31  1  0  0  0  0
 21 40  1  0  0  0  0
 21 41  1  0  0  0  0
 22 42  1  0  0  0  0
 24 25  2  0  0  0  0
 24 43  1  0  0  0  0
 25 26  1  0  0  0  0
 25 44  1  0  0  0  0
 26 27  2  0  0  0  0
 26 29  1  0  0  0  0
 27 28  1  0  0  0  0
 27 45  1  0  0  0  0
 29 30  3  0  0  0  0
M  END
>  <PARENT_CMPD_ID>
4J1I

>  <STANDARD_TYPE>
IC50

>  <RELATION>
=

>  <STANDARD_VALUE>
0.039999999

>  <STANDARD_UNITS>
uM

>  <COMPOUND_KEY>
110

>  <PUBMED_ID>
23590342

>  <JOURNAL>
J.Med.Chem.

>  <YEAR>
2013

>  <VOLUME>
56

>  <FIRST_PAGE>
3980

>  <Company>
Roche

>  <Resolution>
2.05

>  <idx>
69

>  <Model>
Train

>  <target>
7.3979402

>  <des_pred_mlr>
6.8828402

>  <RF_Canvas>
7.5259433

>  <DNN_Canvas>
7.4001889

>  <pred_CoMFA>
7.0893998

>  <pred_COMSIA>
6.8421998

>  <pred_abm5>
7.5477533

>  <pred_ff8>
7.1283741

>  <pred_gau6>
7.514245

>  <CID>
BACE_69

>  <active>
1

>  <des_class_bayes>
1

>  <maacs_class_bayes>
1

>  <radial_class_bayes>
1

>  <dend_class_bayes>
1

>  <molprint_class_bayes>
1

>  <RF_canvas>
1

>  <DNN_canvas>
1

$$$$
4ACU_1854
  MOE2015           3D

 54 58  0  0  1  0  0  0  0  0999 V2000
   30.1000    8.8400   23.7580 C   0  0  0  0  0  0  0  0  0  0  0  0
   30.2780    7.9440   24.3520 H   0  0  0  0  0  0  0  0  0  0  0  0
   29.7140    9.6310   24.4010 H   0  0  0  0  0  0  0  0  0  0  0  0
   31.0350    9.1650   23.3020 H   0  0  0  0  0  0  0  0  0  0  0  0
   29.1440    8.5500   22.7320 O   0  0  0  0  0  0  0  0  0  0  0  0
   28.8470    9.6370   21.9140 C   0  0  0  0  0  0  0  0  0  0  0  0
   29.7470   10.6480   21.6390 C   0  0  0  0  0  0  0  0  0  0  0  0
   30.7210   10.6610   22.1050 H   0  0  0  0  0  0  0  0  0  0  0  0
   29.3750   11.6420   20.7560 C   0  0  0  0  0  0  0  0  0  0  0  0
   30.0820   12.4140   20.4900 H   0  0  0  0  0  0  0  0  0  0  0  0
   28.1060   11.6580   20.2090 C   0  0  0  0  0  0  0  0  0  0  0  0
   27.8190   12.4820   19.5730 H   0  0  0  0  0  0  0  0  0  0  0  0
   27.1920   10.6470   20.4530 C   0  0  0  0  0  0  0  0  0  0  0  0
   27.6130    9.6230   21.2820 C   0  0  0  0  0  0  0  0  0  0  0  0
   26.7610    8.6120   21.5370 F   0  0  0  0  0  0  0  0  0  0  0  0
   25.8190   10.7510   19.9720 C   0  0  0  0  0  0  0  0  0  0  0  0
   25.5160   11.1100   18.6730 C   0  0  0  0  0  0  0  0  0  0  0  0
   26.3110   11.2640   17.9590 H   0  0  0  0  0  0  0  0  0  0  0  0
   24.1980   11.2730   18.2820 C   0  0  0  0  0  0  0  0  0  0  0  0
   23.9690   11.5500   17.2640 H   0  0  0  0  0  0  0  0  0  0  0  0
   23.1720   11.0820   19.1930 C   0  0  0  0  0  0  0  0  0  0  0  0
   22.1490   11.2350   18.8810 H   0  0  0  0  0  0  0  0  0  0  0  0
   23.4370   10.6970   20.5000 C   0  0  0  0  0  0  0  0  0  0  0  0
   24.7670   10.5590   20.8570 C   0  0  0  0  0  0  0  0  0  0  0  0
   24.9980   10.2880   21.8770 H   0  0  0  0  0  0  0  0  0  0  0  0
   22.3420   10.4860   21.5280 C   0  0  3  0  0  0  0  0  0  0  0  0
   22.4370   11.6080   22.5490 C   0  0  0  0  0  0  0  0  0  0  0  0
   22.3760   12.8610   22.2040 N   0  0  0  0  0  0  0  0  0  0  0  0
   22.4770   13.7930   23.3420 C   0  0  0  0  0  0  0  0  0  0  0  0
   21.8620   14.6660   23.1220 H   0  0  0  0  0  0  0  0  0  0  0  0
   23.5190   14.0980   23.4400 H   0  0  0  0  0  0  0  0  0  0  0  0
   22.0220   13.2160   24.6800 C   0  0  0  0  0  0  0  0  0  0  0  0
   22.7280   11.9030   24.9920 C   0  0  0  0  0  0  0  0  0  0  0  0
   22.2690   11.4180   25.8530 H   0  0  0  0  0  0  0  0  0  0  0  0
   23.7850   12.0770   25.1940 H   0  0  0  0  0  0  0  0  0  0  0  0
   22.5640   11.0840   23.7970 N   0  0  0  0  0  0  0  0  0  0  0  0
   22.6740    9.7150   23.5950 C   0  0  0  0  0  0  0  0  0  0  0  0
   22.5800    9.2970   22.3760 N   0  3  0  0  0  0  0  0  0  0  0  0
   22.8810    8.8920   24.6780 N   0  0  0  0  0  0  0  0  0  0  0  0
   22.9690    7.8950   24.5450 H   0  0  0  0  0  0  0  0  0  0  0  0
   22.9450    9.2850   25.6060 H   0  0  0  0  0  0  0  0  0  0  0  0
   22.3040   14.1510   25.6350 F   0  0  0  0  0  0  0  0  0  0  0  0
   20.6660   12.9700   24.6590 F   0  0  0  0  0  0  0  0  0  0  0  0
   20.9530   10.3730   20.9150 C   0  0  0  0  0  0  0  0  0  0  0  0
   20.4390    9.1410   20.5430 C   0  0  0  0  0  0  0  0  0  0  0  0
   21.0140    8.2400   20.6980 H   0  0  0  0  0  0  0  0  0  0  0  0
   19.1800    9.0780   19.9710 C   0  0  0  0  0  0  0  0  0  0  0  0
   18.8030    8.1040   19.6960 H   0  0  0  0  0  0  0  0  0  0  0  0
   18.3960   10.1380   19.7340 N   0  0  0  0  0  0  0  0  0  0  0  0
   18.9220   11.3230   20.0790 C   0  0  0  0  0  0  0  0  0  0  0  0
   18.3340   12.2100   19.8930 H   0  0  0  0  0  0  0  0  0  0  0  0
   20.1640   11.4830   20.6560 C   0  0  0  0  0  0  0  0  0  0  0  0
   20.5210   12.4710   20.9060 H   0  0  0  0  0  0  0  0  0  0  0  0
   22.6550    8.3400   22.0620 H   0  0  0  0  0  0  0  0  0  0  0  0
  1  2  1  0  0  0  0
  1  3  1  0  0  0  0
  1  4  1  0  0  0  0
  1  5  1  0  0  0  0
  5  6  1  0  0  0  0
  6  7  1  0  0  0  0
  6 14  2  0  0  0  0
  7  8  1  0  0  0  0
  7  9  2  0  0  0  0
  9 10  1  0  0  0  0
  9 11  1  0  0  0  0
 11 12  1  0  0  0  0
 11 13  2  0  0  0  0
 13 14  1  0  0  0  0
 13 16  1  0  0  0  0
 14 15  1  0  0  0  0
 16 17  1  0  0  0  0
 16 24  2  0  0  0  0
 17 18  1  0  0  0  0
 17 19  2  0  0  0  0
 19 20  1  0  0  0  0
 19 21  1  0  0  0  0
 21 22  1  0  0  0  0
 21 23  2  0  0  0  0
 23 24  1  0  0  0  0
 23 26  1  0  0  0  0
 24 25  1  0  0  0  0
 26 27  1  0  0  0  0
 26 38  1  0  0  0  0
 26 44  1  0  0  0  0
 27 28  2  0  0  0  0
 27 36  1  0  0  0  0
 28 29  1  0  0  0  0
 29 30  1  0  0  0  0
 29 31  1  0  0  0  0
 29 32  1  0  0  0  0
 32 33  1  0  0  0  0
 32 42  1  0  0  0  0
 32 43  1  0  0  0  0
 33 34  1  0  0  0  0
 33 35  1  0  0  0  0
 33 36  1  0  0  0  0
 36 37  1  0  0  0  0
 37 38  2  0  0  0  0
 37 39  1  0  0  0  0
 38 54  1  0  0  0  0
 39 40  1  0  0  0  0
 39 41  1  0  0  0  0
 44 45  1  0  0  0  0
 44 52  2  0  0  0  0
 45 46  1  0  0  0  0
 45 47  2  0  0  0  0
 47 48  1  0  0  0  0
 47 49  1  0  0  0  0
 49 50  2  0  0  0  0
 50 51  1  0  0  0  0
 50 52  1  0  0  0  0
 52 53  1  0  0  0  0
M  CHG  1  38   1
M  END
>  <PARENT_CMPD_ID>
4ACU

>  <STANDARD_TYPE>
IC50

>  <RELATION>
=

>  <STANDARD_UNITS>
uM

>  <COMPOUND_KEY>
14

>  <PUBMED_ID>
22325942

>  <JOURNAL>
Bioorg.Med.Chem.Lett.

>  <YEAR>
2012

>  <VOLUME>
22

>  <FIRST_PAGE>
1854

>  <Company>
AstraZeneca

>  <Resolution>
1.75

>  <idx>
70

>  <Model>
Train

>  <target>
7.3899999

>  <des_pred_mlr>
6.8611898

>  <RF_Canvas>
7.4489775

>  <DNN_Canvas>
7.2409329

>  <pred_CoMFA>
7.2023001

>  <pred_COMSIA>
7.3255

>  <pred_abm5>
7.4957376

>  <pred_ff8>
5.2693682

>  <pred_gau6>
7.6297455

>  <CID>
BACE_70

>  <active>
1

>  <des_class_bayes>
1

>  <maacs_class_bayes>
0

>  <radial_class_bayes>
1

>  <dend_class_bayes>
1

>  <molprint_class_bayes>
1

>  <RF_canvas>
1

>  <DNN_canvas>
1

$$$$
4EWO_6721
  MOE2015           3D

 73 75  0  0  1  0  0  0  0  0999 V2000
   23.0270   13.4020   23.0980 O   0  0  0  0  0  0  0  0  0  0  0  0
   24.0620   12.7500   23.4010 C   0  0  0  0  0  0  0  0  0  0  0  0
   25.3840   13.4130   23.8480 C   0  0  0  0  0  0  0  0  0  0  0  0
   24.0960   11.4270   23.3900 N   0  0  0  0  0  0  0  0  0  0  0  0
   22.9630   10.5610   22.9430 C   0  0  3  0  0  0  0  0  0  0  0  0
   23.4780    9.6230   21.8570 C   0  0  0  0  0  0  0  0  0  0  0  0
   24.1140   10.3750   20.6660 C   0  0  0  0  0  0  0  0  0  0  0  0
   23.5980   11.5770   20.1550 C   0  0  0  0  0  0  0  0  0  0  0  0
   24.3000   12.2280   19.0880 C   0  0  0  0  0  0  0  0  0  0  0  0
   25.4470   11.6360   18.5290 C   0  0  0  0  0  0  0  0  0  0  0  0
   25.9450   10.4590   19.0710 C   0  0  0  0  0  0  0  0  0  0  0  0
   25.2740    9.7940   20.1220 C   0  0  0  0  0  0  0  0  0  0  0  0
   22.4170    9.7980   24.1820 C   0  0  3  0  0  0  0  0  0  0  0  0
   21.2660    8.9760   23.8330 O   0  0  0  0  0  0  0  0  0  0  0  0
   21.9430   10.8290   25.2320 C   0  0  0  0  0  0  0  0  0  0  0  0
   21.3490   10.1150   26.3490 N   0  3  0  0  0  0  0  0  0  0  0  0
   20.3080   10.8130   27.0920 C   0  0  3  0  0  0  0  0  0  0  0  0
   19.1760   11.2720   26.2240 C   0  0  0  0  0  0  0  0  0  0  0  0
   18.5790   12.5970   26.2620 C   0  0  0  0  0  0  0  0  0  0  0  0
   19.0880   13.6660   27.2110 C   0  0  0  0  0  0  0  0  0  0  0  0
   19.8400   12.9780   28.3800 C   0  0  0  0  0  0  0  0  0  0  0  0
   18.8680   12.2900   29.3450 C   0  0  0  0  0  0  0  0  0  0  0  0
   20.5180   14.1330   29.1500 C   0  0  0  0  0  0  0  0  0  0  0  0
   20.9440   12.1240   27.7090 C   0  0  0  0  0  0  0  0  0  0  0  0
   17.5820   12.6430   25.3290 N   0  0  0  0  0  0  0  0  0  0  0  0
   17.5690   11.3590   24.7500 N   0  0  0  0  0  0  0  0  0  0  0  0
   18.5120   10.4820   25.2580 C   0  0  0  0  0  0  0  0  0  0  0  0
   16.5540   11.2050   23.7220 C   0  0  0  0  0  0  0  0  0  0  0  0
   15.2460   10.5840   24.2090 C   0  0  0  0  0  0  0  0  0  0  0  0
   15.4790    9.2530   24.9610 C   0  0  0  0  0  0  0  0  0  0  0  0
   14.5000   11.5900   25.1440 C   0  0  0  0  0  0  0  0  0  0  0  0
   14.4130   10.2890   22.9670 C   0  0  0  0  0  0  0  0  0  0  0  0
   26.1260   12.6410   24.0530 H   0  0  0  0  0  0  0  0  0  0  0  0
   25.2100   13.9990   24.7510 H   0  0  0  0  0  0  0  0  0  0  0  0
   25.7490   14.0670   23.0560 H   0  0  0  0  0  0  0  0  0  0  0  0
   24.9420   10.9730   23.7040 H   0  0  0  0  0  0  0  0  0  0  0  0
   22.1430   11.1410   22.5200 H   0  0  0  0  0  0  0  0  0  0  0  0
   22.6430    9.0280   21.4870 H   0  0  0  0  0  0  0  0  0  0  0  0
   24.2290    8.9640   22.2930 H   0  0  0  0  0  0  0  0  0  0  0  0
   22.6910   12.0020   20.5580 H   0  0  0  0  0  0  0  0  0  0  0  0
   23.9470   13.1770   18.7120 H   0  0  0  0  0  0  0  0  0  0  0  0
   25.9370   12.0950   17.6830 H   0  0  0  0  0  0  0  0  0  0  0  0
   26.8630   10.0440   18.6820 H   0  0  0  0  0  0  0  0  0  0  0  0
   25.6460    8.8540   20.5020 H   0  0  0  0  0  0  0  0  0  0  0  0
   23.2150    9.1620   24.5650 H   0  0  0  0  0  0  0  0  0  0  0  0
   20.5820    9.5610   23.5000 H   0  0  0  0  0  0  0  0  0  0  0  0
   21.2030   11.4930   24.7860 H   0  0  0  0  0  0  0  0  0  0  0  0
   22.7930   11.4150   25.5810 H   0  0  0  0  0  0  0  0  0  0  0  0
   22.0900    9.8910   26.9980 H   0  0  0  0  0  0  0  0  0  0  0  0
   20.9480    9.2610   25.9880 H   0  0  0  0  0  0  0  0  0  0  0  0
   19.9240   10.1150   27.8360 H   0  0  0  0  0  0  0  0  0  0  0  0
   18.2470   14.2390   27.6030 H   0  0  0  0  0  0  0  0  0  0  0  0
   19.7670   14.3340   26.6810 H   0  0  0  0  0  0  0  0  0  0  0  0
   18.1580   13.0220   29.7290 H   0  0  0  0  0  0  0  0  0  0  0  0
   19.4260   11.8550   30.1740 H   0  0  0  0  0  0  0  0  0  0  0  0
   18.3290   11.5030   28.8180 H   0  0  0  0  0  0  0  0  0  0  0  0
   19.7560   14.7460   29.6300 H   0  0  0  0  0  0  0  0  0  0  0  0
   21.0920   14.7450   28.4550 H   0  0  0  0  0  0  0  0  0  0  0  0
   21.1840   13.7220   29.9080 H   0  0  0  0  0  0  0  0  0  0  0  0
   21.4180   12.7030   26.9170 H   0  0  0  0  0  0  0  0  0  0  0  0
   21.6900   11.8480   28.4540 H   0  0  0  0  0  0  0  0  0  0  0  0
   18.6940    9.4530   24.9850 H   0  0  0  0  0  0  0  0  0  0  0  0
   16.9600   10.5690   22.9350 H   0  0  0  0  0  0  0  0  0  0  0  0
   16.3310   12.1910   23.3140 H   0  0  0  0  0  0  0  0  0  0  0  0
   16.0740    9.4400   25.8550 H   0  0  0  0  0  0  0  0  0  0  0  0
   16.0090    8.5560   24.3110 H   0  0  0  0  0  0  0  0  0  0  0  0
   14.5190    8.8240   25.2470 H   0  0  0  0  0  0  0  0  0  0  0  0
   15.1100   11.7880   26.0250 H   0  0  0  0  0  0  0  0  0  0  0  0
   13.5460   11.1610   25.4520 H   0  0  0  0  0  0  0  0  0  0  0  0
   14.3230   12.5220   24.6070 H   0  0  0  0  0  0  0  0  0  0  0  0
   14.9490    9.5870   22.3280 H   0  0  0  0  0  0  0  0  0  0  0  0
   14.2360   11.2150   22.4200 H   0  0  0  0  0  0  0  0  0  0  0  0
   13.4590    9.8540   23.2640 H   0  0  0  0  0  0  0  0  0  0  0  0
  1  2  2  0  0  0  0
  2  3  1  0  0  0  0
  2  4  1  0  0  0  0
  3 33  1  0  0  0  0
  3 34  1  0  0  0  0
  3 35  1  0  0  0  0
  4  5  1  0  0  0  0
  4 36  1  0  0  0  0
  5  6  1  0  0  0  0
  5 13  1  0  0  0  0
  5 37  1  0  0  0  0
  6  7  1  0  0  0  0
  6 38  1  0  0  0  0
  6 39  1  0  0  0  0
  7  8  1  0  0  0  0
  7 12  2  0  0  0  0
  8  9  2  0  0  0  0
  8 40  1  0  0  0  0
  9 10  1  0  0  0  0
  9 41  1  0  0  0  0
 10 11  2  0  0  0  0
 10 42  1  0  0  0  0
 11 12  1  0  0  0  0
 11 43  1  0  0  0  0
 12 44  1  0  0  0  0
 13 14  1  0  0  0  0
 13 15  1  0  0  0  0
 13 45  1  0  0  0  0
 14 46  1  0  0  0  0
 15 16  1  0  0  0  0
 15 47  1  0  0  0  0
 15 48  1  0  0  0  0
 16 17  1  0  0  0  0
 16 49  1  0  0  0  0
 16 50  1  0  0  0  0
 17 18  1  0  0  0  0
 17 24  1  0  0  0  0
 17 51  1  0  0  0  0
 18 19  1  0  0  0  0
 18 27  2  0  0  0  0
 19 20  1  0  0  0  0
 19 25  2  0  0  0  0
 20 21  1  0  0  0  0
 20 52  1  0  0  0  0
 20 53  1  0  0  0  0
 21 22  1  0  0  0  0
 21 23  1  0  0  0  0
 21 24  1  0  0  0  0
 22 54  1  0  0  0  0
 22 55  1  0  0  0  0
 22 56  1  0  0  0  0
 23 57  1  0  0  0  0
 23 58  1  0  0  0  0
 23 59  1  0  0  0  0
 24 60  1  0  0  0  0
 24 61  1  0  0  0  0
 25 26  1  0  0  0  0
 26 27  1  0  0  0  0
 26 28  1  0  0  0  0
 27 62  1  0  0  0  0
 28 29  1  0  0  0  0
 28 63  1  0  0  0  0
 28 64  1  0  0  0  0
 29 30  1  0  0  0  0
 29 31  1  0  0  0  0
 29 32  1  0  0  0  0
 30 65  1  0  0  0  0
 30 66  1  0  0  0  0
 30 67  1  0  0  0  0
 31 68  1  0  0  0  0
 31 69  1  0  0  0  0
 31 70  1  0  0  0  0
 32 71  1  0  0  0  0
 32 72  1  0  0  0  0
 32 73  1  0  0  0  0
M  CHG  1  16   1
M  END
>  <PARENT_CMPD_ID>
4EWO

>  <STANDARD_TYPE>
IC50

>  <RELATION>
=

>  <STANDARD_VALUE>
0.044

>  <STANDARD_UNITS>
uM

>  <COMPOUND_KEY>
6

>  <PUBMED_ID>
23010268

>  <JOURNAL>
Bioorg.Med.Chem.Lett.

>  <YEAR>
2012

>  <VOLUME>
22

>  <FIRST_PAGE>
6721

>  <Company>
Medivir

>  <Resolution>
1.8

>  <idx>
71

>  <Model>
Train

>  <target>
7.3565474

>  <des_pred_mlr>
6.5036001

>  <RF_Canvas>
7.3484755

>  <DNN_Canvas>
7.181149

>  <pred_CoMFA>
7.1995001

>  <pred_COMSIA>
7.0525999

>  <pred_abm5>
7.1175447

>  <pred_ff8>
7.468895

>  <pred_gau6>
6.897387

>  <CID>
BACE_71

>  <active>
1

>  <des_class_bayes>
0

>  <maacs_class_bayes>
1

>  <radial_class_bayes>
1

>  <dend_class_bayes>
1

>  <molprint_class_bayes>
1

>  <RF_canvas>
1

>  <DNN_canvas>
1

$$$$
4IVS_5706
  MOE2015           3D

 49 51  0  0  0  0  0  0  0  0999 V2000
   27.3320   15.3660   17.4640 C   0  0  0  0  0  0  0  0  0  0  0  0
   26.4800   14.7180   18.5110 C   0  0  0  0  0  0  0  0  0  0  0  0
   26.4510   15.1460   19.6500 O   0  0  0  0  0  0  0  0  0  0  0  0
   25.7080   13.5640   18.1340 N   0  0  0  0  0  0  0  0  0  0  0  0
   24.8040   12.8380   19.0120 C   0  0  0  0  0  0  0  0  0  0  0  0
   25.1470   11.6000   19.5660 C   0  0  0  0  0  0  0  0  0  0  0  0
   26.7120   10.9480   19.2490 Cl  0  0  0  0  0  0  0  0  0  0  0  0
   24.2520   10.9060   20.3880 C   0  0  0  0  0  0  0  0  0  0  0  0
   23.5530   13.3840   19.2620 C   0  0  0  0  0  0  0  0  0  0  0  0
   23.0760   14.9220   18.5780 Cl  0  0  0  0  0  0  0  0  0  0  0  0
   22.6710   12.6950   20.0750 C   0  0  0  0  0  0  0  0  0  0  0  0
   23.0130   11.4630   20.6430 C   0  0  0  0  0  0  0  0  0  0  0  0
   21.9670   10.7990   21.4910 C   0  0  0  0  0  0  0  0  0  0  0  0
   22.4360   10.0420   22.6310 N   0  0  0  0  0  0  0  0  0  0  0  0
   22.7350   10.4470   23.9980 C   0  0  0  0  0  0  0  0  0  0  0  0
   23.1250    9.4660   24.7830 N   0  0  0  0  0  0  0  0  0  0  0  0
   22.6670   11.8040   24.5540 N   0  0  0  0  0  0  0  0  0  0  0  0
   22.3060   13.1400   24.0610 C   0  0  0  0  0  0  0  0  0  0  0  0
   21.9430   13.3900   22.9230 O   0  0  0  0  0  0  0  0  0  0  0  0
   22.3450   14.3240   24.9960 C   0  0  0  0  0  0  0  0  0  0  0  0
   20.9700   14.6140   25.3410 N   0  0  0  0  0  0  0  0  0  0  0  0
   20.4620   15.5640   26.1770 C   0  0  0  0  0  0  0  0  0  0  0  0
   21.0220   16.5910   26.9900 C   0  0  0  0  0  0  0  0  0  0  0  0
   20.1990   17.4380   27.7580 C   0  0  0  0  0  0  0  0  0  0  0  0
   20.7240   18.5650   28.6330 C   0  0  0  0  0  0  0  0  0  0  0  0
   21.0730   19.4180   29.3030 N   0  0  0  0  0  0  0  0  0  0  0  0
   18.8200   17.2600   27.7240 C   0  0  0  0  0  0  0  0  0  0  0  0
   18.2540   16.2520   26.9420 C   0  0  0  0  0  0  0  0  0  0  0  0
   19.0670   15.4130   26.1760 C   0  0  0  0  0  0  0  0  0  0  0  0
   18.7400   14.3510   25.3300 C   0  0  0  0  0  0  0  0  0  0  0  0
   19.9420   13.8880   24.8420 C   0  0  0  0  0  0  0  0  0  0  0  0
   27.2150   14.8340   16.5200 H   0  0  0  0  0  0  0  0  0  0  0  0
   28.3770   15.3320   17.7730 H   0  0  0  0  0  0  0  0  0  0  0  0
   27.0240   16.4040   17.3360 H   0  0  0  0  0  0  0  0  0  0  0  0
   25.8010   13.2320   17.1850 H   0  0  0  0  0  0  0  0  0  0  0  0
   24.5250    9.9520   20.8150 H   0  0  0  0  0  0  0  0  0  0  0  0
   21.6970   13.1170   20.2760 H   0  0  0  0  0  0  0  0  0  0  0  0
   21.4070   10.1180   20.8510 H   0  0  0  0  0  0  0  0  0  0  0  0
   21.3010   11.5780   21.8630 H   0  0  0  0  0  0  0  0  0  0  0  0
   22.5820    9.0600   22.4470 H   0  0  0  0  0  0  0  0  0  0  0  0
   23.3690    9.6550   25.7450 H   0  0  0  0  0  0  0  0  0  0  0  0
   22.9390   11.8240   25.5270 H   0  0  0  0  0  0  0  0  0  0  0  0
   22.7990   15.1820   24.5000 H   0  0  0  0  0  0  0  0  0  0  0  0
   22.9150   14.0790   25.8920 H   0  0  0  0  0  0  0  0  0  0  0  0
   22.0940   16.7220   27.0180 H   0  0  0  0  0  0  0  0  0  0  0  0
   18.1820   17.9070   28.3080 H   0  0  0  0  0  0  0  0  0  0  0  0
   17.1820   16.1200   26.9290 H   0  0  0  0  0  0  0  0  0  0  0  0
   17.7540   13.9730   25.1060 H   0  0  0  0  0  0  0  0  0  0  0  0
   20.0490   13.0610   24.1560 H   0  0  0  0  0  0  0  0  0  0  0  0
  1  2  1  0  0  0  0
  1 32  1  0  0  0  0
  1 33  1  0  0  0  0
  1 34  1  0  0  0  0
  2  3  2  0  0  0  0
  2  4  1  0  0  0  0
  4  5  1  0  0  0  0
  4 35  1  0  0  0  0
  5  6  2  0  0  0  0
  5  9  1  0  0  0  0
  6  7  1  0  0  0  0
  6  8  1  0  0  0  0
  8 12  2  0  0  0  0
  8 36  1  0  0  0  0
  9 10  1  0  0  0  0
  9 11  2  0  0  0  0
 11 12  1  0  0  0  0
 11 37  1  0  0  0  0
 12 13  1  0  0  0  0
 13 14  1  0  0  0  0
 13 38  1  0  0  0  0
 13 39  1  0  0  0  0
 14 15  1  0  0  0  0
 14 40  1  0  0  0  0
 15 16  2  0  0  0  0
 15 17  1  0  0  0  0
 16 41  1  0  0  0  0
 17 18  1  0  0  0  0
 17 42  1  0  0  0  0
 18 19  2  0  0  0  0
 18 20  1  0  0  0  0
 20 21  1  0  0  0  0
 20 43  1  0  0  0  0
 20 44  1  0  0  0  0
 21 22  1  0  0  0  0
 21 31  1  0  0  0  0
 22 23  1  0  0  0  0
 22 29  2  0  0  0  0
 23 24  2  0  0  0  0
 23 45  1  0  0  0  0
 24 25  1  0  0  0  0
 24 27  1  0  0  0  0
 25 26  3  0  0  0  0
 27 28  2  0  0  0  0
 27 46  1  0  0  0  0
 28 29  1  0  0  0  0
 28 47  1  0  0  0  0
 29 30  1  0  0  0  0
 30 31  2  0  0  0  0
 30 48  1  0  0  0  0
 31 49  1  0  0  0  0
M  END
>  <PARENT_CMPD_ID>
4IVS

>  <STANDARD_TYPE>
IC50

>  <RELATION>
=

>  <STANDARD_VALUE>
0.044

>  <STANDARD_UNITS>
uM

>  <COMPOUND_KEY>
25

>  <PUBMED_ID>
23681056

>  <JOURNAL>
Molecules

>  <YEAR>
2013

>  <VOLUME>
18

>  <FIRST_PAGE>
5706

>  <Company>
SIMM

>  <Resolution>
2.6400001

>  <idx>
72

>  <Model>
Train

>  <target>
7.3565474

>  <des_pred_mlr>
5.296

>  <RF_Canvas>
7.0093651

>  <DNN_Canvas>
6.6290555

>  <pred_CoMFA>
7.2733002

>  <pred_COMSIA>
6.1398001

>  <pred_abm5>
6.9176207

>  <pred_ff8>
5.7038321

>  <pred_gau6>
6.5615396

>  <CID>
BACE_72

>  <active>
1

>  <des_class_bayes>
0

>  <maacs_class_bayes>
0

>  <radial_class_bayes>
1

>  <dend_class_bayes>
1

>  <molprint_class_bayes>
1

>  <RF_canvas>
1

>  <DNN_canvas>
1

$$$$
3IVH_6386
  MOE2015           3D

 73 75  0  0  1  0  0  0  0  0999 V2000
   23.9920   12.9860   23.0050 C   0  0  0  0  0  0  0  0  0  0  0  0
   22.2760   10.1710   24.0500 C   0  0  3  0  0  0  0  0  0  0  0  0
   23.3290    9.8000   21.7450 C   0  0  0  0  0  0  0  0  0  0  0  0
   25.3730   10.2790   20.3230 C   0  0  0  0  0  0  0  0  0  0  0  0
   23.9920   12.1730   18.8370 C   0  0  0  0  0  0  0  0  0  0  0  0
   21.9410   11.2370   25.1100 C   0  0  0  0  0  0  0  0  0  0  0  0
   20.2770   11.6470   27.0050 C   0  0  0  0  0  0  0  0  0  0  0  0
   21.2530   12.6730   27.5960 C   0  0  0  0  0  0  0  0  0  0  0  0
   20.7130   13.4830   28.7810 C   0  0  0  0  0  0  0  0  0  0  0  0
   19.1580   12.2140   26.1420 C   0  0  0  0  0  0  0  0  0  0  0  0
   17.0790   13.1800   24.5160 C   0  0  0  0  0  0  0  0  0  0  0  0
   18.1890   11.3530   25.6300 C   0  0  0  0  0  0  0  0  0  0  0  0
   23.3240   13.0880   18.1310 F   0  0  0  0  0  0  0  0  0  0  0  0
   23.3440   11.4820   19.8600 C   0  0  0  0  0  0  0  0  0  0  0  0
   25.3250   11.9150   18.5520 C   0  0  0  0  0  0  0  0  0  0  0  0
   26.0120   10.9590   19.2900 C   0  0  0  0  0  0  0  0  0  0  0  0
   27.3140   10.7210   19.0290 F   0  0  0  0  0  0  0  0  0  0  0  0
   24.0330   10.5310   20.6120 C   0  0  0  0  0  0  0  0  0  0  0  0
   22.8600   10.8150   22.7880 C   0  0  3  0  0  0  0  0  0  0  0  0
   23.9910   11.6580   23.1590 N   0  0  0  0  0  0  0  0  0  0  0  0
   23.0200   13.5910   22.6140 O   0  0  0  0  0  0  0  0  0  0  0  0
   25.2620   13.7080   23.3440 C   0  0  0  0  0  0  0  0  0  0  0  0
   21.1120    9.4390   23.7260 O   0  0  0  0  0  0  0  0  0  0  0  0
   21.0680   10.7400   26.1630 N   0  3  0  0  0  0  0  0  0  0  0  0
   20.0350   12.6100   29.8350 C   0  0  0  0  0  0  0  0  0  0  0  0
   19.0040   11.6960   29.1890 C   0  0  0  0  0  0  0  0  0  0  0  0
   19.6820   10.8200   28.1400 C   0  0  0  0  0  0  0  0  0  0  0  0
   19.0670   13.5700   25.8220 C   0  0  0  0  0  0  0  0  0  0  0  0
   17.1320   11.8140   24.8230 C   0  0  0  0  0  0  0  0  0  0  0  0
   18.0290   14.0450   25.0150 C   0  0  0  0  0  0  0  0  0  0  0  0
   16.1090   10.8410   24.2720 C   0  0  0  0  0  0  0  0  0  0  0  0
   15.7870    9.7430   25.2850 C   0  0  0  0  0  0  0  0  0  0  0  0
   14.7800   11.5240   23.9370 C   0  0  0  0  0  0  0  0  0  0  0  0
   16.7060   10.2120   23.0150 C   0  0  0  0  0  0  0  0  0  0  0  0
   23.0260    9.4970   24.4640 H   0  0  0  0  0  0  0  0  0  0  0  0
   24.0200    9.0950   22.2080 H   0  0  0  0  0  0  0  0  0  0  0  0
   22.4690    9.2600   21.3500 H   0  0  0  0  0  0  0  0  0  0  0  0
   25.9190    9.5510   20.9050 H   0  0  0  0  0  0  0  0  0  0  0  0
   21.4470   12.0740   24.6160 H   0  0  0  0  0  0  0  0  0  0  0  0
   22.8710   11.5800   25.5630 H   0  0  0  0  0  0  0  0  0  0  0  0
   21.5260   13.3730   26.8060 H   0  0  0  0  0  0  0  0  0  0  0  0
   22.1420   12.1380   27.9310 H   0  0  0  0  0  0  0  0  0  0  0  0
   19.9870   14.2050   28.4070 H   0  0  0  0  0  0  0  0  0  0  0  0
   21.5440   14.0120   29.2490 H   0  0  0  0  0  0  0  0  0  0  0  0
   16.2890   13.5580   23.8840 H   0  0  0  0  0  0  0  0  0  0  0  0
   18.2510   10.3000   25.8600 H   0  0  0  0  0  0  0  0  0  0  0  0
   22.3040   11.6840   20.0710 H   0  0  0  0  0  0  0  0  0  0  0  0
   25.8260   12.4540   17.7610 H   0  0  0  0  0  0  0  0  0  0  0  0
   22.0560   11.3950   22.3340 H   0  0  0  0  0  0  0  0  0  0  0  0
   24.8120   11.2180   23.5500 H   0  0  0  0  0  0  0  0  0  0  0  0
   26.0120   12.9890   23.6740 H   0  0  0  0  0  0  0  0  0  0  0  0
   25.0700   14.4250   24.1420 H   0  0  0  0  0  0  0  0  0  0  0  0
   25.6270   14.2340   22.4620 H   0  0  0  0  0  0  0  0  0  0  0  0
   20.4720   10.0570   23.3650 H   0  0  0  0  0  0  0  0  0  0  0  0
   21.6550   10.2090   26.7910 H   0  0  0  0  0  0  0  0  0  0  0  0
   20.4080   10.1210   25.7150 H   0  0  0  0  0  0  0  0  0  0  0  0
   19.5390   13.2500   30.5650 H   0  0  0  0  0  0  0  0  0  0  0  0
   20.7890   12.0030   30.3360 H   0  0  0  0  0  0  0  0  0  0  0  0
   18.2320   12.3000   28.7130 H   0  0  0  0  0  0  0  0  0  0  0  0
   18.5510   11.0630   29.9520 H   0  0  0  0  0  0  0  0  0  0  0  0
   20.4800   10.2520   28.6180 H   0  0  0  0  0  0  0  0  0  0  0  0
   18.9450   10.1320   27.7260 H   0  0  0  0  0  0  0  0  0  0  0  0
   19.8060   14.2590   26.2020 H   0  0  0  0  0  0  0  0  0  0  0  0
   17.9710   15.0980   24.7810 H   0  0  0  0  0  0  0  0  0  0  0  0
   15.3610   10.1910   26.1830 H   0  0  0  0  0  0  0  0  0  0  0  0
   16.7010    9.2080   25.5440 H   0  0  0  0  0  0  0  0  0  0  0  0
   15.0700    9.0470   24.8500 H   0  0  0  0  0  0  0  0  0  0  0  0
   14.3630   11.9690   24.8400 H   0  0  0  0  0  0  0  0  0  0  0  0
   14.0830   10.7870   23.5400 H   0  0  0  0  0  0  0  0  0  0  0  0
   14.9490   12.3020   23.1930 H   0  0  0  0  0  0  0  0  0  0  0  0
   17.6510    9.7290   23.2640 H   0  0  0  0  0  0  0  0  0  0  0  0
   16.8800   10.9870   22.2680 H   0  0  0  0  0  0  0  0  0  0  0  0
   16.0130    9.4710   22.6150 H   0  0  0  0  0  0  0  0  0  0  0  0
  1 20  1  0  0  0  0
  1 21  2  0  0  0  0
  1 22  1  0  0  0  0
  2  6  1  0  0  0  0
  2 19  1  0  0  0  0
  2 23  1  0  0  0  0
  2 35  1  0  0  0  0
  3 18  1  0  0  0  0
  3 19  1  0  0  0  0
  3 36  1  0  0  0  0
  3 37  1  0  0  0  0
  4 16  2  0  0  0  0
  4 18  1  0  0  0  0
  4 38  1  0  0  0  0
  5 13  1  0  0  0  0
  5 14  1  0  0  0  0
  5 15  2  0  0  0  0
  6 24  1  0  0  0  0
  6 39  1  0  0  0  0
  6 40  1  0  0  0  0
  7  8  1  0  0  0  0
  7 10  1  0  0  0  0
  7 24  1  0  0  0  0
  7 27  1  0  0  0  0
  8  9  1  0  0  0  0
  8 41  1  0  0  0  0
  8 42  1  0  0  0  0
  9 25  1  0  0  0  0
  9 43  1  0  0  0  0
  9 44  1  0  0  0  0
 10 12  2  0  0  0  0
 10 28  1  0  0  0  0
 11 29  2  0  0  0  0
 11 30  1  0  0  0  0
 11 45  1  0  0  0  0
 12 29  1  0  0  0  0
 12 46  1  0  0  0  0
 14 18  2  0  0  0  0
 14 47  1  0  0  0  0
 15 16  1  0  0  0  0
 15 48  1  0  0  0  0
 16 17  1  0  0  0  0
 19 20  1  0  0  0  0
 19 49  1  0  0  0  0
 20 50  1  0  0  0  0
 22 51  1  0  0  0  0
 22 52  1  0  0  0  0
 22 53  1  0  0  0  0
 23 54  1  0  0  0  0
 24 55  1  0  0  0  0
 24 56  1  0  0  0  0
 25 26  1  0  0  0  0
 25 57  1  0  0  0  0
 25 58  1  0  0  0  0
 26 27  1  0  0  0  0
 26 59  1  0  0  0  0
 26 60  1  0  0  0  0
 27 61  1  0  0  0  0
 27 62  1  0  0  0  0
 28 30  2  0  0  0  0
 28 63  1  0  0  0  0
 29 31  1  0  0  0  0
 30 64  1  0  0  0  0
 31 32  1  0  0  0  0
 31 33  1  0  0  0  0
 31 34  1  0  0  0  0
 32 65  1  0  0  0  0
 32 66  1  0  0  0  0
 32 67  1  0  0  0  0
 33 68  1  0  0  0  0
 33 69  1  0  0  0  0
 33 70  1  0  0  0  0
 34 71  1  0  0  0  0
 34 72  1  0  0  0  0
 34 73  1  0  0  0  0
M  CHG  1  24   1
M  END
>  <PARENT_CMPD_ID>
3IVH

>  <STANDARD_TYPE>
IC50

>  <RELATION>
=

>  <STANDARD_VALUE>
0.046999998

>  <STANDARD_UNITS>
uM

>  <COMPOUND_KEY>
1

>  <PUBMED_ID>
19811916

>  <JOURNAL>
Bioorg.Med.Chem.Lett.

>  <YEAR>
2009

>  <VOLUME>
19

>  <FIRST_PAGE>
6386

>  <Company>
Elan

>  <Resolution>
1.8

>  <idx>
73

>  <Model>
Train

>  <target>
7.3279023

>  <des_pred_mlr>
6.7818799

>  <RF_Canvas>
7.2654195

>  <DNN_Canvas>
7.2714863

>  <pred_CoMFA>
7.4431

>  <pred_COMSIA>
7.9629998

>  <pred_abm5>
7.7192478

>  <pred_ff8>
6.7397995

>  <pred_gau6>
7.6694946

>  <CID>
BACE_73

>  <active>
1

>  <des_class_bayes>
1

>  <maacs_class_bayes>
1

>  <radial_class_bayes>
1

>  <dend_class_bayes>
1

>  <molprint_class_bayes>
1

>  <RF_canvas>
1

>  <DNN_canvas>
1

$$$$
4JPE_3379
  MOE2015           3D

 46 49  0  0  1  0  0  0  0  0999 V2000
   25.3540   10.9770   20.0810 C   0  0  0  0  0  0  0  0  0  0  0  0
   24.9440   11.1750   18.7320 C   0  0  0  0  0  0  0  0  0  0  0  0
   23.5630   11.2780   18.4160 C   0  0  0  0  0  0  0  0  0  0  0  0
   22.5690   11.1920   19.4310 C   0  0  0  0  0  0  0  0  0  0  0  0
   22.9730   10.9940   20.7810 C   0  0  0  0  0  0  0  0  0  0  0  0
   24.3550   10.8930   21.0930 C   0  0  0  0  0  0  0  0  0  0  0  0
   21.0810   11.2970   19.0760 C   0  0  0  0  0  0  0  0  0  0  0  0
   20.1150   10.6470   20.1010 C   0  0  0  0  0  0  0  0  0  0  0  0
   20.4580   11.1600   21.5190 C   0  0  0  0  0  0  0  0  0  0  0  0
   21.9380   10.9220   21.9090 C   0  0  3  0  0  0  0  0  0  0  0  0
   26.7260   10.8850   20.4500 C   0  0  0  0  0  0  0  0  0  0  0  0
   22.3390   11.9480   22.9830 C   0  0  0  0  0  0  0  0  0  0  0  0
   22.6210   11.2850   24.1200 N   0  0  0  0  0  0  0  0  0  0  0  0
   22.4500    9.9550   23.8750 C   0  0  0  0  0  0  0  0  0  0  0  0
   22.0670    9.6790   22.6750 N   0  0  0  0  0  0  0  0  0  0  0  0
   22.3770   13.1710   22.8110 O   0  0  0  0  0  0  0  0  0  0  0  0
   23.0400   11.9230   25.3740 C   0  0  0  0  0  0  0  0  0  0  0  0
   22.6880    9.0570   24.8920 N   0  0  0  0  0  0  0  0  0  0  0  0
   27.7020   11.7700   19.9110 C   0  0  0  0  0  0  0  0  0  0  0  0
   28.9900   11.6880   20.2870 N   0  0  0  0  0  0  0  0  0  0  0  0
   29.3090   10.7490   21.1980 C   0  0  0  0  0  0  0  0  0  0  0  0
   28.4670    9.8810   21.7810 N   0  0  0  0  0  0  0  0  0  0  0  0
   27.1780    9.9450   21.4130 C   0  0  0  0  0  0  0  0  0  0  0  0
   18.6510   11.0520   19.7930 C   0  0  0  0  0  0  0  0  0  0  0  0
   20.2030    9.0970   20.0370 C   0  0  0  0  0  0  0  0  0  0  0  0
   25.6840   11.2470   17.9480 H   0  0  0  0  0  0  0  0  0  0  0  0
   23.2620   11.4240   17.3890 H   0  0  0  0  0  0  0  0  0  0  0  0
   24.6550   10.7490   22.1200 H   0  0  0  0  0  0  0  0  0  0  0  0
   20.9280   10.8110   18.1120 H   0  0  0  0  0  0  0  0  0  0  0  0
   20.8270   12.3540   18.9950 H   0  0  0  0  0  0  0  0  0  0  0  0
   19.8220   10.6430   22.2380 H   0  0  0  0  0  0  0  0  0  0  0  0
   20.2560   12.2300   21.5590 H   0  0  0  0  0  0  0  0  0  0  0  0
   23.0790   13.0040   25.2360 H   0  0  0  0  0  0  0  0  0  0  0  0
   24.0270   11.5570   25.6560 H   0  0  0  0  0  0  0  0  0  0  0  0
   22.3250   11.6830   26.1610 H   0  0  0  0  0  0  0  0  0  0  0  0
   22.5640    8.0680   24.7310 H   0  0  0  0  0  0  0  0  0  0  0  0
   22.9870    9.3880   25.7980 H   0  0  0  0  0  0  0  0  0  0  0  0
   27.4040   12.5170   19.1900 H   0  0  0  0  0  0  0  0  0  0  0  0
   30.3470   10.6880   21.4890 H   0  0  0  0  0  0  0  0  0  0  0  0
   26.4680    9.2650   21.8600 H   0  0  0  0  0  0  0  0  0  0  0  0
   18.5590   12.1370   19.8310 H   0  0  0  0  0  0  0  0  0  0  0  0
   17.9870   10.6050   20.5330 H   0  0  0  0  0  0  0  0  0  0  0  0
   18.3780   10.6990   18.7990 H   0  0  0  0  0  0  0  0  0  0  0  0
   21.2240    8.7820   20.2500 H   0  0  0  0  0  0  0  0  0  0  0  0
   19.9180    8.7580   19.0410 H   0  0  0  0  0  0  0  0  0  0  0  0
   19.5280    8.6640   20.7750 H   0  0  0  0  0  0  0  0  0  0  0  0
  1  2  1  0  0  0  0
  1  6  2  0  0  0  0
  1 11  1  0  0  0  0
  2  3  2  0  0  0  0
  2 26  1  0  0  0  0
  3  4  1  0  0  0  0
  3 27  1  0  0  0  0
  4  5  2  0  0  0  0
  4  7  1  0  0  0  0
  5  6  1  0  0  0  0
  5 10  1  0  0  0  0
  6 28  1  0  0  0  0
  7  8  1  0  0  0  0
  7 29  1  0  0  0  0
  7 30  1  0  0  0  0
  8  9  1  0  0  0  0
  8 24  1  0  0  0  0
  8 25  1  0  0  0  0
  9 10  1  0  0  0  0
  9 31  1  0  0  0  0
  9 32  1  0  0  0  0
 10 12  1  0  0  0  0
 10 15  1  0  0  0  0
 11 19  1  0  0  0  0
 11 23  2  0  0  0  0
 12 13  1  0  0  0  0
 12 16  2  0  0  0  0
 13 14  1  0  0  0  0
 13 17  1  0  0  0  0
 14 15  2  0  0  0  0
 14 18  1  0  0  0  0
 17 33  1  0  0  0  0
 17 34  1  0  0  0  0
 17 35  1  0  0  0  0
 18 36  1  0  0  0  0
 18 37  1  0  0  0  0
 19 20  2  0  0  0  0
 19 38  1  0  0  0  0
 20 21  1  0  0  0  0
 21 22  2  0  0  0  0
 21 39  1  0  0  0  0
 22 23  1  0  0  0  0
 23 40  1  0  0  0  0
 24 41  1  0  0  0  0
 24 42  1  0  0  0  0
 24 43  1  0  0  0  0
 25 44  1  0  0  0  0
 25 45  1  0  0  0  0
 25 46  1  0  0  0  0
M  END
>  <PARENT_CMPD_ID>
4JPE

>  <STANDARD_TYPE>
IC50

>  <RELATION>
=

>  <STANDARD_VALUE>
0.048

>  <STANDARD_UNITS>
uM

>  <COMPOUND_KEY>
(R)-50

>  <PUBMED_ID>
23537249

>  <JOURNAL>
J.Med.Chem.

>  <YEAR>
2013

>  <VOLUME>
56

>  <FIRST_PAGE>
3379

>  <Company>
Array

>  <Resolution>
1.8

>  <idx>
74

>  <Model>
Train

>  <target>
7.318759

>  <des_pred_mlr>
6.8229098

>  <RF_Canvas>
7.1693444

>  <DNN_Canvas>
7.2164125

>  <pred_CoMFA>
6.9619999

>  <pred_COMSIA>
6.6869998

>  <pred_abm5>
6.9828839

>  <pred_ff8>
5.5477118

>  <pred_gau6>
6.8537002

>  <CID>
BACE_74

>  <active>
1

>  <des_class_bayes>
0

>  <maacs_class_bayes>
0

>  <radial_class_bayes>
1

>  <dend_class_bayes>
1

>  <molprint_class_bayes>
1

>  <RF_canvas>
1

>  <DNN_canvas>
1

$$$$
3UQP_10749
  MOE2015           3D

150152  0  0  1  0  0  0  0  0999 V2000
   32.0450   14.7790   22.4330 O   0  0  0  0  0  0  0  0  0  0  0  0
   30.8370   14.6020   22.5580 C   0  0  0  0  0  0  0  0  0  0  0  0
   30.0900   15.5450   23.2830 O   0  0  0  0  0  0  0  0  0  0  0  0
   30.7380   16.5000   24.1300 C   0  0  0  0  0  0  0  0  0  0  0  0
   31.5120   17.4910   23.2790 C   0  0  0  0  0  0  0  0  0  0  0  0
   32.0050   18.2170   23.9250 H   0  0  0  0  0  0  0  0  0  0  0  0
   30.8260   18.0080   22.6080 H   0  0  0  0  0  0  0  0  0  0  0  0
   32.2610   16.9590   22.6930 H   0  0  0  0  0  0  0  0  0  0  0  0
   29.7450   17.2550   24.9500 C   0  0  0  0  0  0  0  0  0  0  0  0
   30.2670   17.9730   25.5830 H   0  0  0  0  0  0  0  0  0  0  0  0
   29.1860   16.5590   25.5750 H   0  0  0  0  0  0  0  0  0  0  0  0
   29.0570   17.7850   24.2910 H   0  0  0  0  0  0  0  0  0  0  0  0
   31.6740   15.7860   25.0870 C   0  0  0  0  0  0  0  0  0  0  0  0
   32.1640   16.5180   25.7290 H   0  0  0  0  0  0  0  0  0  0  0  0
   32.4260   15.2390   24.5190 H   0  0  0  0  0  0  0  0  0  0  0  0
   31.1040   15.0890   25.7000 H   0  0  0  0  0  0  0  0  0  0  0  0
   30.3530   13.2150   22.4120 N   0  0  0  0  0  0  0  0  0  0  0  0
   30.9300   12.4170   22.6360 H   0  0  0  0  0  0  0  0  0  0  0  0
   28.9970   13.0750   21.9270 C   0  0  3  0  0  0  0  0  0  0  0  0
   28.9060   13.8300   21.1460 H   0  0  0  0  0  0  0  0  0  0  0  0
   27.9730   13.2930   23.0600 C   0  0  0  0  0  0  0  0  0  0  0  0
   28.3360   13.1260   24.2170 O   0  0  0  0  0  0  0  0  0  0  0  0
   28.7000   11.6860   21.3420 C   0  0  0  0  0  0  0  0  0  0  0  0
   27.6200   11.5650   21.2560 H   0  0  0  0  0  0  0  0  0  0  0  0
   29.3260   11.5470   19.9680 C   0  0  0  0  0  0  0  0  0  0  0  0
   30.4070   11.6670   20.0470 H   0  0  0  0  0  0  0  0  0  0  0  0
   28.9230   12.3130   19.3060 H   0  0  0  0  0  0  0  0  0  0  0  0
   29.0980   10.5610   19.5630 H   0  0  0  0  0  0  0  0  0  0  0  0
   29.2810   10.6030   22.2720 C   0  0  0  0  0  0  0  0  0  0  0  0
   30.3600   10.7330   22.3510 H   0  0  0  0  0  0  0  0  0  0  0  0
   29.0620    9.6170   21.8620 H   0  0  0  0  0  0  0  0  0  0  0  0
   28.8310   10.6940   23.2610 H   0  0  0  0  0  0  0  0  0  0  0  0
   26.1070   13.8690   21.3970 C   0  0  0  0  0  0  0  0  0  0  0  0
   25.0500   14.1330   21.4190 H   0  0  0  0  0  0  0  0  0  0  0  0
   26.2410   12.9530   20.8210 H   0  0  0  0  0  0  0  0  0  0  0  0
   26.6740   14.6760   20.9330 H   0  0  0  0  0  0  0  0  0  0  0  0
   26.6910   18.1770   24.2380 N   0  0  0  0  0  0  0  0  0  0  0  0
   26.5010   19.1550   24.4040 H   0  0  0  0  0  0  0  0  0  0  0  0
   27.1190   17.8850   23.3710 H   0  0  0  0  0  0  0  0  0  0  0  0
   25.8450   17.5450   26.2640 O   0  0  0  0  0  0  0  0  0  0  0  0
   23.2750   13.9370   23.1520 O   0  0  0  0  0  0  0  0  0  0  0  0
   26.6010   15.7760   24.9690 C   0  0  0  0  0  0  0  0  0  0  0  0
   27.5390   15.6350   24.4320 H   0  0  0  0  0  0  0  0  0  0  0  0
   26.6330   15.2220   25.9070 H   0  0  0  0  0  0  0  0  0  0  0  0
   25.4510   15.3310   24.1380 C   0  0  0  0  0  0  0  0  0  0  0  0
   25.4280   15.9020   23.2100 H   0  0  0  0  0  0  0  0  0  0  0  0
   24.5220   15.4900   24.6850 H   0  0  0  0  0  0  0  0  0  0  0  0
   26.3570   17.2140   25.2220 C   0  0  0  0  0  0  0  0  0  0  0  0
   24.2530   13.2450   23.4270 C   0  0  0  0  0  0  0  0  0  0  0  0
   25.6080   13.8550   23.8220 C   0  0  3  0  0  0  0  0  0  0  0  0
   25.9720   13.3480   24.7160 H   0  0  0  0  0  0  0  0  0  0  0  0
   26.5800   13.6630   22.7480 N   0  0  0  0  0  0  0  0  0  0  0  0
   24.2000   11.7680   23.3770 N   0  0  0  0  0  0  0  0  0  0  0  0
   25.0320   11.2360   23.5900 H   0  0  0  0  0  0  0  0  0  0  0  0
   22.9500   11.0510   23.0210 C   0  0  3  0  0  0  0  0  0  0  0  0
   22.2150   11.7270   22.5830 H   0  0  0  0  0  0  0  0  0  0  0  0
   23.2210    9.9820   21.9650 C   0  0  0  0  0  0  0  0  0  0  0  0
   23.8680    9.2120   22.3840 H   0  0  0  0  0  0  0  0  0  0  0  0
   22.2790    9.5330   21.6510 H   0  0  0  0  0  0  0  0  0  0  0  0
   23.9190   10.6360   20.7380 C   0  0  0  0  0  0  0  0  0  0  0  0
   23.3790   11.8910   20.1160 C   0  0  0  0  0  0  0  0  0  0  0  0
   22.4910   12.3480   20.5260 H   0  0  0  0  0  0  0  0  0  0  0  0
   25.1630   10.0060   20.1580 C   0  0  0  0  0  0  0  0  0  0  0  0
   25.5720    9.1090   20.6000 H   0  0  0  0  0  0  0  0  0  0  0  0
   24.0570   12.5220   18.9290 C   0  0  0  0  0  0  0  0  0  0  0  0
   23.6590   13.4280   18.4960 H   0  0  0  0  0  0  0  0  0  0  0  0
   25.8350   10.6330   18.9580 C   0  0  0  0  0  0  0  0  0  0  0  0
   26.7160   10.1720   18.5370 H   0  0  0  0  0  0  0  0  0  0  0  0
   25.2900   11.8880   18.3480 C   0  0  0  0  0  0  0  0  0  0  0  0
   25.7800   12.3350   17.4960 H   0  0  0  0  0  0  0  0  0  0  0  0
   22.4060   10.4460   24.3210 C   0  0  3  0  0  0  0  0  0  0  0  0
   21.4940    9.9920   23.9330 H   0  0  0  0  0  0  0  0  0  0  0  0
   23.0030    9.2940   24.7910 O   0  0  0  0  0  0  0  0  0  0  0  0
   23.8470    9.5410   25.1760 H   0  0  0  0  0  0  0  0  0  0  0  0
   21.7310   11.4020   25.3410 C   0  0  0  0  0  0  0  0  0  0  0  0
   22.3300   12.3060   25.4540 H   0  0  0  0  0  0  0  0  0  0  0  0
   21.6360   10.9060   26.3070 H   0  0  0  0  0  0  0  0  0  0  0  0
   20.3380   11.7630   24.8000 C   0  0  0  0  0  0  0  0  0  0  0  0
   20.1530   12.7660   24.1240 O   0  0  0  0  0  0  0  0  0  0  0  0
   19.2150   10.8640   25.0910 N   0  0  0  0  0  0  0  0  0  0  0  0
   19.3700   10.0340   25.6450 H   0  0  0  0  0  0  0  0  0  0  0  0
   17.8580   11.1600   24.5810 C   0  0  3  0  0  0  0  0  0  0  0  0
   17.8910   11.3450   23.5070 H   0  0  0  0  0  0  0  0  0  0  0  0
   17.3040   12.4430   25.2220 C   0  0  0  0  0  0  0  0  0  0  0  0
   17.2070   12.5120   26.4390 O   0  0  0  0  0  0  0  0  0  0  0  0
   16.9680    9.9520   24.8310 C   0  0  0  0  0  0  0  0  0  0  0  0
   17.3690    9.0960   24.2870 H   0  0  0  0  0  0  0  0  0  0  0  0
   16.9590    9.7320   25.8990 H   0  0  0  0  0  0  0  0  0  0  0  0
   15.5270   10.2160   24.3600 C   0  0  0  0  0  0  0  0  0  0  0  0
   15.1690   11.1890   24.6960 H   0  0  0  0  0  0  0  0  0  0  0  0
   15.4920   10.1530   22.8510 C   0  0  0  0  0  0  0  0  0  0  0  0
   15.8500    9.1780   22.5200 H   0  0  0  0  0  0  0  0  0  0  0  0
   16.1310   10.9340   22.4400 H   0  0  0  0  0  0  0  0  0  0  0  0
   14.4690   10.3010   22.5050 H   0  0  0  0  0  0  0  0  0  0  0  0
   14.6630    9.0700   24.9170 C   0  0  0  0  0  0  0  0  0  0  0  0
   15.0510    8.1160   24.5600 H   0  0  0  0  0  0  0  0  0  0  0  0
   13.6340    9.1930   24.5790 H   0  0  0  0  0  0  0  0  0  0  0  0
   14.6920    9.0890   26.0060 H   0  0  0  0  0  0  0  0  0  0  0  0
   16.8780   13.5640   24.3810 N   0  0  0  0  0  0  0  0  0  0  0  0
   16.9790   13.5040   23.3780 H   0  0  0  0  0  0  0  0  0  0  0  0
   16.3040   14.7770   24.9860 C   0  0  3  0  0  0  0  0  0  0  0  0
   16.7620   14.9590   25.9580 H   0  0  0  0  0  0  0  0  0  0  0  0
   14.8090   14.5130   25.0220 C   0  0  0  0  0  0  0  0  0  0  0  0
   14.2770   14.0350   24.0260 O   0  0  0  0  0  0  0  0  0  0  0  0
   16.5340   16.0030   24.1710 C   0  0  0  0  0  0  0  0  0  0  0  0
   16.0920   15.8710   23.1830 H   0  0  0  0  0  0  0  0  0  0  0  0
   17.6050   16.1760   24.0700 H   0  0  0  0  0  0  0  0  0  0  0  0
   16.0730   16.8590   24.6640 H   0  0  0  0  0  0  0  0  0  0  0  0
   13.9630   14.7790   26.2060 N   0  0  0  0  0  0  0  0  0  0  0  0
   12.5250   14.4480   26.0910 C   0  0  3  0  0  0  0  0  0  0  0  0
   12.2990   14.0460   25.1030 H   0  0  0  0  0  0  0  0  0  0  0  0
   12.1340   13.2570   27.0160 C   0  0  0  0  0  0  0  0  0  0  0  0
   11.9670   13.3990   28.2320 O   0  0  0  0  0  0  0  0  0  0  0  0
   11.6760   15.7070   26.1460 C   0  0  0  0  0  0  0  0  0  0  0  0
   10.6390   15.4510   26.3640 H   0  0  0  0  0  0  0  0  0  0  0  0
   12.0540   16.3810   26.9150 H   0  0  0  0  0  0  0  0  0  0  0  0
   11.7780   16.3710   24.7630 C   0  0  0  0  0  0  0  0  0  0  0  0
   10.6100   16.3300   23.7980 C   0  0  0  0  0  0  0  0  0  0  0  0
    9.6970   15.8330   24.0900 H   0  0  0  0  0  0  0  0  0  0  0  0
   13.0410   17.0630   24.3280 C   0  0  0  0  0  0  0  0  0  0  0  0
   13.8860   17.1010   24.9990 H   0  0  0  0  0  0  0  0  0  0  0  0
   10.7030   16.9740   22.4310 C   0  0  0  0  0  0  0  0  0  0  0  0
    9.8590   16.9410   21.7580 H   0  0  0  0  0  0  0  0  0  0  0  0
   13.1430   17.7070   22.9620 C   0  0  0  0  0  0  0  0  0  0  0  0
   14.0560   18.2020   22.6660 H   0  0  0  0  0  0  0  0  0  0  0  0
   11.9710   17.6580   22.0150 C   0  0  0  0  0  0  0  0  0  0  0  0
   12.0440   18.1150   21.0390 H   0  0  0  0  0  0  0  0  0  0  0  0
   14.5150   15.3290   27.4280 C   0  0  0  0  0  0  0  0  0  0  0  0
   13.7210   15.4430   28.1660 H   0  0  0  0  0  0  0  0  0  0  0  0
   14.9600   16.3020   27.2200 H   0  0  0  0  0  0  0  0  0  0  0  0
   15.2790   14.6560   27.8170 H   0  0  0  0  0  0  0  0  0  0  0  0
    9.7840    9.2410   29.7550 C   0  0  0  0  0  0  0  0  0  0  0  0
   10.0340    9.1880   30.8150 H   0  0  0  0  0  0  0  0  0  0  0  0
    9.9690    8.2730   29.2890 H   0  0  0  0  0  0  0  0  0  0  0  0
    8.7320    9.5040   29.6420 H   0  0  0  0  0  0  0  0  0  0  0  0
    9.4660    9.9090   27.2090 O   0  0  0  0  0  0  0  0  0  0  0  0
   11.5090   10.4510   24.5720 C   0  0  0  0  0  0  0  0  0  0  0  0
   10.4900   10.6580   24.2460 H   0  0  0  0  0  0  0  0  0  0  0  0
   12.0460    9.9310   23.7790 H   0  0  0  0  0  0  0  0  0  0  0  0
   11.5100    9.6450   25.8290 C   0  0  0  0  0  0  0  0  0  0  0  0
   12.3320    8.9290   25.8150 H   0  0  0  0  0  0  0  0  0  0  0  0
   10.5650    9.1120   25.9340 H   0  0  0  0  0  0  0  0  0  0  0  0
   12.2170   11.7240   24.9510 C   0  0  0  0  0  0  0  0  0  0  0  0
   11.8020   12.5660   24.3960 H   0  0  0  0  0  0  0  0  0  0  0  0
   13.2830   11.6400   24.7400 H   0  0  0  0  0  0  0  0  0  0  0  0
   10.5840   10.2240   29.1320 O   0  0  0  0  0  0  0  0  0  0  0  0
   10.4280   10.4580   27.7710 C   0  0  0  0  0  0  0  0  0  0  0  0
   11.6850   10.6040   26.9520 C   0  0  3  0  0  0  0  0  0  0  0  0
   12.5150   10.4340   27.6380 H   0  0  0  0  0  0  0  0  0  0  0  0
   12.0000   11.9050   26.3740 N   0  0  0  0  0  0  0  0  0  0  0  0
  1  2  2  0  0  0  0
  2  3  1  0  0  0  0
  2 17  1  0  0  0  0
  3  4  1  0  0  0  0
  4  5  1  0  0  0  0
  4  9  1  0  0  0  0
  4 13  1  0  0  0  0
  5  6  1  0  0  0  0
  5  7  1  0  0  0  0
  5  8  1  0  0  0  0
  9 10  1  0  0  0  0
  9 11  1  0  0  0  0
  9 12  1  0  0  0  0
 13 14  1  0  0  0  0
 13 15  1  0  0  0  0
 13 16  1  0  0  0  0
 17 18  1  0  0  0  0
 17 19  1  0  0  0  0
 19 20  1  0  0  0  0
 19 21  1  0  0  0  0
 19 23  1  0  0  0  0
 21 22  2  0  0  0  0
 21 52  1  0  0  0  0
 23 24  1  0  0  0  0
 23 25  1  0  0  0  0
 23 29  1  0  0  0  0
 25 26  1  0  0  0  0
 25 27  1  0  0  0  0
 25 28  1  0  0  0  0
 29 30  1  0  0  0  0
 29 31  1  0  0  0  0
 29 32  1  0  0  0  0
 33 34  1  0  0  0  0
 33 35  1  0  0  0  0
 33 36  1  0  0  0  0
 33 52  1  0  0  0  0
 37 38  1  0  0  0  0
 37 39  1  0  0  0  0
 37 48  1  0  0  0  0
 40 48  2  0  0  0  0
 41 49  2  0  0  0  0
 42 43  1  0  0  0  0
 42 44  1  0  0  0  0
 42 45  1  0  0  0  0
 42 48  1  0  0  0  0
 45 46  1  0  0  0  0
 45 47  1  0  0  0  0
 45 50  1  0  0  0  0
 49 50  1  0  0  0  0
 49 53  1  0  0  0  0
 50 51  1  0  0  0  0
 50 52  1  0  0  0  0
 53 54  1  0  0  0  0
 53 55  1  0  0  0  0
 55 56  1  0  0  0  0
 55 57  1  0  0  0  0
 55 71  1  0  0  0  0
 57 58  1  0  0  0  0
 57 59  1  0  0  0  0
 57 60  1  0  0  0  0
 60 61  2  0  0  0  0
 60 63  1  0  0  0  0
 61 62  1  0  0  0  0
 61 65  1  0  0  0  0
 63 64  1  0  0  0  0
 63 67  2  0  0  0  0
 65 66  1  0  0  0  0
 65 69  2  0  0  0  0
 67 68  1  0  0  0  0
 67 69  1  0  0  0  0
 69 70  1  0  0  0  0
 71 72  1  0  0  0  0
 71 73  1  0  0  0  0
 71 75  1  0  0  0  0
 73 74  1  0  0  0  0
 75 76  1  0  0  0  0
 75 77  1  0  0  0  0
 75 78  1  0  0  0  0
 78 79  2  0  0  0  0
 78 80  1  0  0  0  0
 80 81  1  0  0  0  0
 80 82  1  0  0  0  0
 82 83  1  0  0  0  0
 82 84  1  0  0  0  0
 82 86  1  0  0  0  0
 84 85  2  0  0  0  0
 84 99  1  0  0  0  0
 86 87  1  0  0  0  0
 86 88  1  0  0  0  0
 86 89  1  0  0  0  0
 89 90  1  0  0  0  0
 89 91  1  0  0  0  0
 89 95  1  0  0  0  0
 91 92  1  0  0  0  0
 91 93  1  0  0  0  0
 91 94  1  0  0  0  0
 95 96  1  0  0  0  0
 95 97  1  0  0  0  0
 95 98  1  0  0  0  0
 99100  1  0  0  0  0
 99101  1  0  0  0  0
101102  1  0  0  0  0
101103  1  0  0  0  0
101105  1  0  0  0  0
103104  2  0  0  0  0
103109  1  0  0  0  0
105106  1  0  0  0  0
105107  1  0  0  0  0
105108  1  0  0  0  0
109110  1  0  0  0  0
109128  1  0  0  0  0
110111  1  0  0  0  0
110112  1  0  0  0  0
110114  1  0  0  0  0
112113  2  0  0  0  0
112150  1  0  0  0  0
114115  1  0  0  0  0
114116  1  0  0  0  0
114117  1  0  0  0  0
117118  2  0  0  0  0
117120  1  0  0  0  0
118119  1  0  0  0  0
118122  1  0  0  0  0
120121  1  0  0  0  0
120124  2  0  0  0  0
122123  1  0  0  0  0
122126  2  0  0  0  0
124125  1  0  0  0  0
124126  1  0  0  0  0
126127  1  0  0  0  0
128129  1  0  0  0  0
128130  1  0  0  0  0
128131  1  0  0  0  0
132133  1  0  0  0  0
132134  1  0  0  0  0
132135  1  0  0  0  0
132146  1  0  0  0  0
136147  2  0  0  0  0
137138  1  0  0  0  0
137139  1  0  0  0  0
137140  1  0  0  0  0
137143  1  0  0  0  0
140141  1  0  0  0  0
140142  1  0  0  0  0
140148  1  0  0  0  0
143144  1  0  0  0  0
143145  1  0  0  0  0
143150  1  0  0  0  0
146147  1  0  0  0  0
147148  1  0  0  0  0
148149  1  0  0  0  0
148150  1  0  0  0  0
M  END
>  <PARENT_CMPD_ID>
3UQP

>  <STANDARD_TYPE>
IC50

>  <RELATION>
=

>  <STANDARD_VALUE>
0.048799999

>  <STANDARD_UNITS>
uM

>  <COMPOUND_KEY>
11

>  <PUBMED_ID>
23181502

>  <JOURNAL>
J.Med.Chem.

>  <YEAR>
2012

>  <VOLUME>
55

>  <FIRST_PAGE>
10749

>  <Company>
SHCNC

>  <Resolution>
1.77

>  <idx>
75

>  <Model>
Train

>  <target>
7.3115802

>  <des_pred_mlr>
9.1265202

>  <RF_Canvas>
7.2866035

>  <DNN_Canvas>
6.4460287

>  <pred_CoMFA>
7.6991

>  <pred_COMSIA>
7.7494001

>  <pred_abm5>
7.061059

>  <pred_ff8>
6.6140537

>  <pred_gau6>
7.6415777

>  <CID>
BACE_75

>  <active>
1

>  <des_class_bayes>
1

>  <maacs_class_bayes>
0

>  <radial_class_bayes>
1

>  <dend_class_bayes>
1

>  <molprint_class_bayes>
1

>  <RF_canvas>
1

>  <DNN_canvas>
1

$$$$
4D88_3364
  MOE2015           3D

 72 74  0  0  1  0  0  0  0  0999 V2000
   30.2490   11.4020   20.1640 F   0  0  0  0  0  0  0  0  0  0  0  0
   29.4660   10.9810   21.1960 C   0  0  0  0  0  0  0  0  0  0  0  0
   29.4500    9.6210   21.2490 F   0  0  0  0  0  0  0  0  0  0  0  0
   29.9620   11.4640   22.3690 F   0  0  0  0  0  0  0  0  0  0  0  0
   28.0370   11.5180   20.9510 C   0  0  3  0  0  0  0  0  0  0  0  0
   27.4070   11.1210   21.7470 H   0  0  0  0  0  0  0  0  0  0  0  0
   28.0240   12.9560   21.0030 O   0  0  0  0  0  0  0  0  0  0  0  0
   28.5850   13.2770   20.2930 H   0  0  0  0  0  0  0  0  0  0  0  0
   27.4420   11.0260   19.5940 C   0  0  0  0  0  0  0  0  0  0  0  0
   27.6240    9.9570   19.4840 H   0  0  0  0  0  0  0  0  0  0  0  0
   27.9180   11.5620   18.7730 H   0  0  0  0  0  0  0  0  0  0  0  0
   25.9300   11.2930   19.5700 C   0  0  0  0  0  0  0  0  0  0  0  0
   25.2910   12.2230   18.6970 C   0  0  0  0  0  0  0  0  0  0  0  0
   23.8820   12.3840   18.7790 C   0  0  0  0  0  0  0  0  0  0  0  0
   23.1150   11.6420   19.7100 C   0  0  0  0  0  0  0  0  0  0  0  0
   22.0450   11.7780   19.7590 H   0  0  0  0  0  0  0  0  0  0  0  0
   23.7540   10.7210   20.5780 C   0  0  0  0  0  0  0  0  0  0  0  0
   25.1520   10.5540   20.4920 C   0  0  0  0  0  0  0  0  0  0  0  0
   25.6400    9.8460   21.1450 H   0  0  0  0  0  0  0  0  0  0  0  0
   22.9670    9.9130   21.6270 C   0  0  0  0  0  0  0  0  0  0  0  0
   23.5880    9.0870   21.9740 H   0  0  0  0  0  0  0  0  0  0  0  0
   22.0640    9.5180   21.1620 H   0  0  0  0  0  0  0  0  0  0  0  0
   22.5590   10.7960   22.8610 C   0  0  3  0  0  0  0  0  0  0  0  0
   21.7450   11.4070   22.4720 H   0  0  0  0  0  0  0  0  0  0  0  0
   21.9860   10.0100   24.0840 C   0  0  3  0  0  0  0  0  0  0  0  0
   22.8350    9.4280   24.4420 H   0  0  0  0  0  0  0  0  0  0  0  0
   21.4130   10.9690   25.1810 C   0  0  3  0  0  0  0  0  0  0  0  0
   20.6820   11.5870   24.6590 H   0  0  0  0  0  0  0  0  0  0  0  0
   22.4450   11.9800   25.7640 C   0  0  0  0  0  0  0  0  0  0  0  0
   23.2580   11.4350   26.2440 H   0  0  0  0  0  0  0  0  0  0  0  0
   21.9540   12.6200   26.4970 H   0  0  0  0  0  0  0  0  0  0  0  0
   23.1060   12.9920   24.4300 S   0  0  0  0  0  0  0  0  0  0  0  0
   23.7410   11.7090   23.3500 C   0  0  0  0  0  0  0  0  0  0  0  0
   24.2250   12.1680   22.4880 H   0  0  0  0  0  0  0  0  0  0  0  0
   24.4660   11.1030   23.8940 H   0  0  0  0  0  0  0  0  0  0  0  0
   22.0360   13.7020   23.7620 O   0  0  0  0  0  0  0  0  0  0  0  0
   24.2190   13.7820   24.9250 O   0  0  0  0  0  0  0  0  0  0  0  0
   20.7050   10.2210   26.2530 N   0  3  0  0  0  0  0  0  0  0  0  0
   21.4230    9.7990   26.8250 H   0  0  0  0  0  0  0  0  0  0  0  0
   20.1750    9.4970   25.7900 H   0  0  0  0  0  0  0  0  0  0  0  0
   19.7620   10.8930   27.1940 C   0  0  0  0  0  0  0  0  0  0  0  0
   20.2970   11.6380   27.7820 H   0  0  0  0  0  0  0  0  0  0  0  0
   19.3180   10.1540   27.8610 H   0  0  0  0  0  0  0  0  0  0  0  0
   18.6590   11.5770   26.3660 C   0  0  0  0  0  0  0  0  0  0  0  0
   17.7020   10.7950   25.6760 C   0  0  0  0  0  0  0  0  0  0  0  0
   17.7650    9.7190   25.7480 H   0  0  0  0  0  0  0  0  0  0  0  0
   16.6570   11.3670   24.8880 C   0  0  0  0  0  0  0  0  0  0  0  0
   16.6280   12.7940   24.8310 C   0  0  0  0  0  0  0  0  0  0  0  0
   15.8580   13.2770   24.2470 H   0  0  0  0  0  0  0  0  0  0  0  0
   17.5740   13.5970   25.5140 C   0  0  0  0  0  0  0  0  0  0  0  0
   17.5180   14.6730   25.4470 H   0  0  0  0  0  0  0  0  0  0  0  0
   18.5920   12.9880   26.2840 C   0  0  0  0  0  0  0  0  0  0  0  0
   19.3150   13.5970   26.8070 H   0  0  0  0  0  0  0  0  0  0  0  0
   15.6250   10.4380   24.1400 C   0  0  0  0  0  0  0  0  0  0  0  0
   14.3770   11.2320   23.6400 C   0  0  0  0  0  0  0  0  0  0  0  0
   14.7020   12.0630   23.0130 H   0  0  0  0  0  0  0  0  0  0  0  0
   13.8250   11.6180   24.4970 H   0  0  0  0  0  0  0  0  0  0  0  0
   13.7330   10.5700   23.0610 H   0  0  0  0  0  0  0  0  0  0  0  0
   16.2790    9.7640   22.8890 C   0  0  0  0  0  0  0  0  0  0  0  0
   16.6710   10.5340   22.2250 H   0  0  0  0  0  0  0  0  0  0  0  0
   15.5300    9.1750   22.3600 H   0  0  0  0  0  0  0  0  0  0  0  0
   17.0920    9.1130   23.2100 H   0  0  0  0  0  0  0  0  0  0  0  0
   15.0940    9.2630   25.0310 C   0  0  0  0  0  0  0  0  0  0  0  0
   14.6230    9.6700   25.9260 H   0  0  0  0  0  0  0  0  0  0  0  0
   15.9260    8.6200   25.3180 H   0  0  0  0  0  0  0  0  0  0  0  0
   14.3630    8.6820   24.4680 H   0  0  0  0  0  0  0  0  0  0  0  0
   20.8750    9.1640   23.7340 O   0  0  0  0  0  0  0  0  0  0  0  0
   20.1630    9.7310   23.4280 H   0  0  0  0  0  0  0  0  0  0  0  0
   23.2670   13.2480   17.9730 F   0  0  0  0  0  0  0  0  0  0  0  0
   25.9660   12.9700   17.7850 N   0  0  0  0  0  0  0  0  0  0  0  0
   25.4650   13.6160   17.1910 H   0  0  0  0  0  0  0  0  0  0  0  0
   26.9680   12.8800   17.7010 H   0  0  0  0  0  0  0  0  0  0  0  0
  1  2  1  0  0  0  0
  2  3  1  0  0  0  0
  2  4  1  0  0  0  0
  2  5  1  0  0  0  0
  5  6  1  0  0  0  0
  5  7  1  0  0  0  0
  5  9  1  0  0  0  0
  7  8  1  0  0  0  0
  9 10  1  0  0  0  0
  9 11  1  0  0  0  0
  9 12  1  0  0  0  0
 12 13  1  0  0  0  0
 12 18  2  0  0  0  0
 13 14  2  0  0  0  0
 13 70  1  0  0  0  0
 14 15  1  0  0  0  0
 14 69  1  0  0  0  0
 15 16  1  0  0  0  0
 15 17  2  0  0  0  0
 17 18  1  0  0  0  0
 17 20  1  0  0  0  0
 18 19  1  0  0  0  0
 20 21  1  0  0  0  0
 20 22  1  0  0  0  0
 20 23  1  0  0  0  0
 23 24  1  0  0  0  0
 23 25  1  0  0  0  0
 23 33  1  0  0  0  0
 25 26  1  0  0  0  0
 25 27  1  0  0  0  0
 25 67  1  0  0  0  0
 27 28  1  0  0  0  0
 27 29  1  0  0  0  0
 27 38  1  0  0  0  0
 29 30  1  0  0  0  0
 29 31  1  0  0  0  0
 29 32  1  0  0  0  0
 32 33  1  0  0  0  0
 32 36  2  0  0  0  0
 32 37  2  0  0  0  0
 33 34  1  0  0  0  0
 33 35  1  0  0  0  0
 38 39  1  0  0  0  0
 38 40  1  0  0  0  0
 38 41  1  0  0  0  0
 41 42  1  0  0  0  0
 41 43  1  0  0  0  0
 41 44  1  0  0  0  0
 44 45  1  0  0  0  0
 44 52  2  0  0  0  0
 45 46  1  0  0  0  0
 45 47  2  0  0  0  0
 47 48  1  0  0  0  0
 47 54  1  0  0  0  0
 48 49  1  0  0  0  0
 48 50  2  0  0  0  0
 50 51  1  0  0  0  0
 50 52  1  0  0  0  0
 52 53  1  0  0  0  0
 54 55  1  0  0  0  0
 54 59  1  0  0  0  0
 54 63  1  0  0  0  0
 55 56  1  0  0  0  0
 55 57  1  0  0  0  0
 55 58  1  0  0  0  0
 59 60  1  0  0  0  0
 59 61  1  0  0  0  0
 59 62  1  0  0  0  0
 63 64  1  0  0  0  0
 63 65  1  0  0  0  0
 63 66  1  0  0  0  0
 67 68  1  0  0  0  0
 70 71  1  0  0  0  0
 70 72  1  0  0  0  0
M  CHG  1  38   1
M  END
>  <PARENT_CMPD_ID>
4D88

>  <STANDARD_TYPE>
IC50

>  <RELATION>
=

>  <STANDARD_VALUE>
0.048999999

>  <STANDARD_UNITS>
uM

>  <COMPOUND_KEY>
48

>  <PUBMED_ID>
22380629

>  <JOURNAL>
J.Med.Chem.

>  <YEAR>
2012

>  <VOLUME>
55

>  <FIRST_PAGE>
3364

>  <Company>
Novartis

>  <Resolution>
1.7

>  <idx>
76

>  <Model>
Train

>  <target>
7.309804

>  <des_pred_mlr>
7.0690498

>  <RF_Canvas>
7.4618239

>  <DNN_Canvas>
7.3719144

>  <pred_CoMFA>
7.5636001

>  <pred_COMSIA>
7.0036001

>  <pred_abm5>
7.2434721

>  <pred_ff8>
7.7917652

>  <pred_gau6>
7.5169802

>  <CID>
BACE_76

>  <active>
1

>  <des_class_bayes>
1

>  <maacs_class_bayes>
1

>  <radial_class_bayes>
1

>  <dend_class_bayes>
1

>  <molprint_class_bayes>
1

>  <RF_canvas>
1

>  <DNN_canvas>
1

$$$$
4J1C_3980
  MOE2015           3D

 42 44  0  0  1  0  0  0  0  0999 V2000
   30.4440   10.6750   21.1180 C   0  0  0  0  0  0  0  0  0  0  0  0
   32.1290    8.8970   23.8730 C   0  0  0  0  0  0  0  0  0  0  0  0
   31.4450   10.3060   21.9970 C   0  0  0  0  0  0  0  0  0  0  0  0
   28.2430   11.1430   19.3260 O   0  0  0  0  0  0  0  0  0  0  0  0
   28.0940   10.5150   20.3860 C   0  0  0  0  0  0  0  0  0  0  0  0
   26.8760   10.1940   20.9000 N   0  0  0  0  0  0  0  0  0  0  0  0
   25.4740   10.9290   19.0560 C   0  0  0  0  0  0  0  0  0  0  0  0
   24.1990   11.2640   18.6110 C   0  0  0  0  0  0  0  0  0  0  0  0
   23.1130   11.1520   19.4730 C   0  0  0  0  0  0  0  0  0  0  0  0
   22.6750   10.0380   24.0040 C   0  0  0  0  0  0  0  0  0  0  0  0
   22.0620   10.5400   21.7330 C   0  0  3  0  0  0  0  0  0  0  0  0
   23.2780   10.6890   20.8180 C   0  0  0  0  0  0  0  0  0  0  0  0
   21.7450   11.9360   22.3610 C   0  0  0  0  0  0  0  0  0  0  0  0
   22.7750   12.3530   23.3900 C   0  0  0  0  0  0  0  0  0  0  0  0
   20.9680    9.8790   20.9140 C   0  0  0  0  0  0  0  0  0  0  0  0
   22.3090    9.6110   22.8140 N   0  0  0  0  0  0  0  0  0  0  0  0
   22.7310   11.3180   24.3840 O   0  0  0  0  0  0  0  0  0  0  0  0
   22.9710    9.1380   24.9680 N   0  0  0  0  0  0  0  0  0  0  0  0
   19.9220    9.5740   21.8240 F   0  0  0  0  0  0  0  0  0  0  0  0
   21.6740   12.9390   21.4560 F   0  0  0  0  0  0  0  0  0  0  0  0
   20.5260   12.0180   22.9580 F   0  0  0  0  0  0  0  0  0  0  0  0
   24.5250   10.3570   21.2260 C   0  0  0  0  0  0  0  0  0  0  0  0
   25.6330   10.4980   20.3610 C   0  0  0  0  0  0  0  0  0  0  0  0
   21.8670   11.4870   19.0400 F   0  0  0  0  0  0  0  0  0  0  0  0
   29.2010   10.0880   21.2340 C   0  0  0  0  0  0  0  0  0  0  0  0
   28.9180    9.1920   22.2010 N   0  0  0  0  0  0  0  0  0  0  0  0
   29.8120    8.8040   23.1120 C   0  0  0  0  0  0  0  0  0  0  0  0
   31.1110    9.3210   22.9950 C   0  0  0  0  0  0  0  0  0  0  0  0
   32.9400    8.5680   24.5620 N   0  0  0  0  0  0  0  0  0  0  0  0
   30.6320   11.4120   20.3520 H   0  0  0  0  0  0  0  0  0  0  0  0
   32.4340   10.7370   21.9390 H   0  0  0  0  0  0  0  0  0  0  0  0
   26.8760    9.6780   21.7680 H   0  0  0  0  0  0  0  0  0  0  0  0
   26.3240   11.0040   18.3940 H   0  0  0  0  0  0  0  0  0  0  0  0
   24.0530   11.6100   17.5990 H   0  0  0  0  0  0  0  0  0  0  0  0
   22.5150   13.3170   23.8260 H   0  0  0  0  0  0  0  0  0  0  0  0
   23.7660   12.4130   22.9400 H   0  0  0  0  0  0  0  0  0  0  0  0
   21.3430    8.9670   20.4490 H   0  0  0  0  0  0  0  0  0  0  0  0
   20.6100   10.5600   20.1420 H   0  0  0  0  0  0  0  0  0  0  0  0
   22.9100    8.1490   24.7720 H   0  0  0  0  0  0  0  0  0  0  0  0
   23.2530    9.4540   25.8850 H   0  0  0  0  0  0  0  0  0  0  0  0
   24.6750    9.9790   22.2270 H   0  0  0  0  0  0  0  0  0  0  0  0
   29.5470    8.1210   23.9060 H   0  0  0  0  0  0  0  0  0  0  0  0
  1  3  1  0  0  0  0
  1 25  2  0  0  0  0
  1 30  1  0  0  0  0
  2 28  1  0  0  0  0
  2 29  3  0  0  0  0
  3 28  2  0  0  0  0
  3 31  1  0  0  0  0
  4  5  2  0  0  0  0
  5  6  1  0  0  0  0
  5 25  1  0  0  0  0
  6 23  1  0  0  0  0
  6 32  1  0  0  0  0
  7  8  1  0  0  0  0
  7 23  2  0  0  0  0
  7 33  1  0  0  0  0
  8  9  2  0  0  0  0
  8 34  1  0  0  0  0
  9 12  1  0  0  0  0
  9 24  1  0  0  0  0
 10 16  2  0  0  0  0
 10 17  1  0  0  0  0
 10 18  1  0  0  0  0
 11 12  1  0  0  0  0
 11 13  1  0  0  0  0
 11 15  1  0  0  0  0
 11 16  1  0  0  0  0
 12 22  2  0  0  0  0
 13 14  1  0  0  0  0
 13 20  1  0  0  0  0
 13 21  1  0  0  0  0
 14 17  1  0  0  0  0
 14 35  1  0  0  0  0
 14 36  1  0  0  0  0
 15 19  1  0  0  0  0
 15 37  1  0  0  0  0
 15 38  1  0  0  0  0
 18 39  1  0  0  0  0
 18 40  1  0  0  0  0
 22 23  1  0  0  0  0
 22 41  1  0  0  0  0
 25 26  1  0  0  0  0
 26 27  2  0  0  0  0
 27 28  1  0  0  0  0
 27 42  1  0  0  0  0
M  END
>  <PARENT_CMPD_ID>
4J1C

>  <STANDARD_TYPE>
IC50

>  <RELATION>
=

>  <STANDARD_VALUE>
0.048999999

>  <STANDARD_UNITS>
uM

>  <COMPOUND_KEY>
70

>  <PUBMED_ID>
23590342

>  <JOURNAL>
J.Med.Chem.

>  <YEAR>
2013

>  <VOLUME>
56

>  <FIRST_PAGE>
3980

>  <Company>
Roche

>  <Resolution>
2.01

>  <idx>
77

>  <Model>
Train

>  <target>
7.309804

>  <des_pred_mlr>
7.03368

>  <RF_Canvas>
7.3370399

>  <DNN_Canvas>
7.3742428

>  <pred_CoMFA>
7.1859999

>  <pred_COMSIA>
6.6293001

>  <pred_abm5>
7.2254844

>  <pred_ff8>
7.5123353

>  <pred_gau6>
7.3179679

>  <CID>
BACE_77

>  <active>
1

>  <des_class_bayes>
1

>  <maacs_class_bayes>
1

>  <radial_class_bayes>
1

>  <dend_class_bayes>
1

>  <molprint_class_bayes>
1

>  <RF_canvas>
1

>  <DNN_canvas>
1

$$$$
4J0P
  MOE2015           3D
HYDROLASE/HYDROLASE INHIBITOR
 42 44  0  0  1  0  0  0  0  0999 V2000
   30.9920    9.3710   22.8190 C   0  0  0  0  0  0  0  0  0  0  0  0
   29.7320    8.7610   22.9060 C   0  0  0  0  0  0  0  0  0  0  0  0
   29.5300    7.9610   23.6030 H   0  0  0  0  0  0  0  0  0  0  0  0
   28.8010    9.2260   22.0790 N   0  0  0  0  0  0  0  0  0  0  0  0
   29.0040   10.1490   21.1640 C   0  0  0  0  0  0  0  0  0  0  0  0
   30.2320   10.8060   21.0390 C   0  0  0  0  0  0  0  0  0  0  0  0
   30.3680   11.6060   20.3260 H   0  0  0  0  0  0  0  0  0  0  0  0
   31.2670   10.3960   21.8600 C   0  0  0  0  0  0  0  0  0  0  0  0
   32.2500   10.8350   21.7800 H   0  0  0  0  0  0  0  0  0  0  0  0
   32.0390    8.9090   23.7010 C   0  0  0  0  0  0  0  0  0  0  0  0
   24.2320   10.4040   20.9980 C   0  0  0  0  0  0  0  0  0  0  0  0
   24.3860    9.8920   21.9360 H   0  0  0  0  0  0  0  0  0  0  0  0
   23.9370   11.7920   18.6250 C   0  0  0  0  0  0  0  0  0  0  0  0
   23.7990   12.3850   17.7330 H   0  0  0  0  0  0  0  0  0  0  0  0
   25.3590   10.6510   20.1800 C   0  0  0  0  0  0  0  0  0  0  0  0
   25.2130   11.3510   18.9670 C   0  0  0  0  0  0  0  0  0  0  0  0
   26.0610   11.5390   18.3250 H   0  0  0  0  0  0  0  0  0  0  0  0
   21.7580   10.4500   21.6090 C   0  0  3  0  0  0  0  0  0  0  0  0
   22.2410   12.3570   23.1270 C   0  0  0  0  0  0  0  0  0  0  0  0
   21.9070   13.3040   23.5510 H   0  0  0  0  0  0  0  0  0  0  0  0
   23.1630   12.5150   22.5670 H   0  0  0  0  0  0  0  0  0  0  0  0
   22.5110   10.0350   23.8540 C   0  0  0  0  0  0  0  0  0  0  0  0
   27.8700   10.5950   20.3370 C   0  0  0  0  0  0  0  0  0  0  0  0
   28.1130   11.2440   19.3460 O   0  0  0  0  0  0  0  0  0  0  0  0
   26.6030   10.2790   20.7400 N   0  0  0  0  0  0  0  0  0  0  0  0
   26.5470    9.6920   21.5600 H   0  0  0  0  0  0  0  0  0  0  0  0
   32.8800    8.5530   24.3890 N   0  0  0  0  0  0  0  0  0  0  0  0
   22.9510   10.7780   20.6670 C   0  0  0  0  0  0  0  0  0  0  0  0
   22.8100   11.4710   19.4370 C   0  0  0  0  0  0  0  0  0  0  0  0
   21.5760   11.8790   19.0380 F   0  0  0  0  0  0  0  0  0  0  0  0
   20.6340    9.7390   20.8830 C   0  0  0  0  0  0  0  0  0  0  0  0
   21.0180    8.8300   20.4210 H   0  0  0  0  0  0  0  0  0  0  0  0
   20.2270   10.3940   20.1130 H   0  0  0  0  0  0  0  0  0  0  0  0
   19.8480    9.4820   21.5930 H   0  0  0  0  0  0  0  0  0  0  0  0
   22.2100    9.5530   22.6790 N   0  0  0  0  0  0  0  0  0  0  0  0
   21.1690   11.7400   22.2530 C   0  0  0  0  0  0  0  0  0  0  0  0
   20.2980   11.4870   22.8580 H   0  0  0  0  0  0  0  0  0  0  0  0
   20.8770   12.4430   21.4730 H   0  0  0  0  0  0  0  0  0  0  0  0
   22.4210   11.3520   24.1620 O   0  0  0  0  0  0  0  0  0  0  0  0
   22.9700    9.1780   24.8080 N   0  0  0  0  0  0  0  0  0  0  0  0
   23.0700    8.1950   24.5980 H   0  0  0  0  0  0  0  0  0  0  0  0
   23.2100    9.5250   25.7260 H   0  0  0  0  0  0  0  0  0  0  0  0
  1  2  1  0  0  0  0
  1  8  2  0  0  0  0
  1 10  1  0  0  0  0
  2  3  1  0  0  0  0
  2  4  2  0  0  0  0
  4  5  1  0  0  0  0
  5  6  2  0  0  0  0
  5 23  1  0  0  0  0
  6  7  1  0  0  0  0
  6  8  1  0  0  0  0
  8  9  1  0  0  0  0
 10 27  3  0  0  0  0
 11 12  1  0  0  0  0
 11 15  2  0  0  0  0
 11 28  1  0  0  0  0
 13 14  1  0  0  0  0
 13 16  2  0  0  0  0
 13 29  1  0  0  0  0
 15 16  1  0  0  0  0
 15 25  1  0  0  0  0
 16 17  1  0  0  0  0
 18 28  1  0  0  0  0
 18 31  1  0  0  0  0
 18 35  1  0  0  0  0
 18 36  1  0  0  0  0
 19 20  1  0  0  0  0
 19 21  1  0  0  0  0
 19 36  1  0  0  0  0
 19 39  1  0  0  0  0
 22 35  2  0  0  0  0
 22 39  1  0  0  0  0
 22 40  1  0  0  0  0
 23 24  2  0  0  0  0
 23 25  1  0  0  0  0
 25 26  1  0  0  0  0
 28 29  2  0  0  0  0
 29 30  1  0  0  0  0
 31 32  1  0  0  0  0
 31 33  1  0  0  0  0
 31 34  1  0  0  0  0
 36 37  1  0  0  0  0
 36 38  1  0  0  0  0
 40 41  1  0  0  0  0
 40 42  1  0  0  0  0
M  END
>  <PARENT_CMPD_ID>
4J0P

>  <STANDARD_TYPE>
IC50

>  <RELATION>
=

>  <STANDARD_VALUE>
0.050999999

>  <STANDARD_UNITS>
uM

>  <COMPOUND_KEY>
1b

>  <PUBMED_ID>
23590342

>  <JOURNAL>
J.Med.Chem.

>  <YEAR>
2013

>  <VOLUME>
56

>  <FIRST_PAGE>
3980

>  <Company>
Roche

>  <Resolution>
1.97

>  <idx>
78

>  <Model>
Train

>  <target>
7.2923999

>  <des_pred_mlr>
6.2960401

>  <RF_Canvas>
6.9641051

>  <DNN_Canvas>
6.8868155

>  <pred_CoMFA>
7.1536999

>  <pred_COMSIA>
6.7322001

>  <pred_abm5>
7.2641149

>  <pred_ff8>
7.0376153

>  <pred_gau6>
7.2370286

>  <CID>
BACE_78

>  <active>
1

>  <des_class_bayes>
0

>  <maacs_class_bayes>
1

>  <radial_class_bayes>
1

>  <dend_class_bayes>
1

>  <molprint_class_bayes>
1

>  <RF_canvas>
1

>  <DNN_canvas>
1

$$$$
3K5D_1924
  MOE2015           3D

 89 88  0  0  1  0  0  0  0  0999 V2000
   30.5590   15.1240   22.7960 C   0  0  0  0  0  0  0  0  0  0  0  0
   29.8640   16.1670   22.7970 O   0  0  0  0  0  0  0  0  0  0  0  0
   31.9880   15.2270   23.1990 C   0  0  0  0  0  0  0  0  0  0  0  0
   30.1030   13.8980   22.4520 N   0  0  0  0  0  0  0  0  0  0  0  0
   28.7240   13.7370   22.0140 C   0  0  3  0  0  0  0  0  0  0  0  0
   27.7860   13.6130   23.1990 C   0  0  0  0  0  0  0  0  0  0  0  0
   28.1930   13.0390   24.1990 O   0  0  0  0  0  0  0  0  0  0  0  0
   28.4870   12.6840   20.8770 C   0  0  0  0  0  0  0  0  0  0  0  0
   28.7450   11.1820   21.2030 C   0  0  0  0  0  0  0  0  0  0  0  0
   30.2270   10.9480   21.5950 C   0  0  0  0  0  0  0  0  0  0  0  0
   28.4010   10.3010   19.9880 C   0  0  0  0  0  0  0  0  0  0  0  0
   26.5430   14.1520   23.0820 N   0  0  0  0  0  0  0  0  0  0  0  0
   25.5690   14.0970   24.1560 C   0  0  3  0  0  0  0  0  0  0  0  0
   24.3170   13.4230   23.6280 C   0  0  0  0  0  0  0  0  0  0  0  0
   23.3010   14.0820   23.4120 O   0  0  0  0  0  0  0  0  0  0  0  0
   25.2490   15.5000   24.7650 C   0  0  0  0  0  0  0  0  0  0  0  0
   26.4650   16.0640   25.5520 C   0  0  0  0  0  0  0  0  0  0  0  0
   26.1780   17.8240   25.8880 S   0  0  0  0  0  0  0  0  0  0  0  0
   26.9990   18.5600   24.4390 C   0  0  0  0  0  0  0  0  0  0  0  0
   24.3680   12.0790   23.4110 N   0  0  0  0  0  0  0  0  0  0  0  0
   23.2260   11.3130   22.8880 C   0  0  3  0  0  0  0  0  0  0  0  0
   22.5060   10.5290   24.0320 C   0  0  3  0  0  0  0  0  0  0  0  0
   23.2810    9.3790   24.4150 O   0  0  0  0  0  0  0  0  0  0  0  0
   23.6700   10.4150   21.6980 C   0  0  0  0  0  0  0  0  0  0  0  0
   24.3120   11.1590   20.4870 C   0  0  0  0  0  0  0  0  0  0  0  0
   24.7890   10.0950   19.4590 C   0  0  0  0  0  0  0  0  0  0  0  0
   23.3260   12.1250   19.7730 C   0  0  0  0  0  0  0  0  0  0  0  0
   22.0020   11.3300   25.2780 C   0  0  0  0  0  0  0  0  0  0  0  0
   20.7040   10.7930   25.9580 C   0  0  3  0  0  0  0  0  0  0  0  0
   20.6450   11.2610   27.4370 C   0  0  0  0  0  0  0  0  0  0  0  0
   19.4210   11.2600   25.2900 C   0  0  0  0  0  0  0  0  0  0  0  0
   19.3960   12.3350   24.7060 O   0  0  0  0  0  0  0  0  0  0  0  0
   17.0530   10.7570   24.7820 C   0  0  0  0  0  0  0  0  0  0  0  0
   18.3430   10.4360   25.3810 N   0  0  0  0  0  0  0  0  0  0  0  0
   16.1320    9.5150   24.7280 C   0  0  0  0  0  0  0  0  0  0  0  0
   14.6550    9.8900   24.4240 C   0  0  0  0  0  0  0  0  0  0  0  0
   14.4660   10.3410   22.9540 C   0  0  0  0  0  0  0  0  0  0  0  0
   32.4520   14.2420   23.1460 H   0  0  0  0  0  0  0  0  0  0  0  0
   32.0510   15.6050   24.2200 H   0  0  0  0  0  0  0  0  0  0  0  0
   32.5070   15.9100   22.5260 H   0  0  0  0  0  0  0  0  0  0  0  0
   30.7170   13.0970   22.4990 H   0  0  0  0  0  0  0  0  0  0  0  0
   28.4680   14.6630   21.5000 H   0  0  0  0  0  0  0  0  0  0  0  0
   29.1400   12.9520   20.0460 H   0  0  0  0  0  0  0  0  0  0  0  0
   27.4470   12.7730   20.5650 H   0  0  0  0  0  0  0  0  0  0  0  0
   28.1060   10.9110   22.0430 H   0  0  0  0  0  0  0  0  0  0  0  0
   30.8710   11.2180   20.7580 H   0  0  0  0  0  0  0  0  0  0  0  0
   30.3750    9.8970   21.8440 H   0  0  0  0  0  0  0  0  0  0  0  0
   30.4760   11.5650   22.4590 H   0  0  0  0  0  0  0  0  0  0  0  0
   29.0410   10.5740   19.1490 H   0  0  0  0  0  0  0  0  0  0  0  0
   27.3570   10.4520   19.7130 H   0  0  0  0  0  0  0  0  0  0  0  0
   28.5620    9.2530   20.2420 H   0  0  0  0  0  0  0  0  0  0  0  0
   26.2890   14.6070   22.2170 H   0  0  0  0  0  0  0  0  0  0  0  0
   25.9910   13.5190   24.9780 H   0  0  0  0  0  0  0  0  0  0  0  0
   24.4000   15.4080   25.4420 H   0  0  0  0  0  0  0  0  0  0  0  0
   24.9980   16.1890   23.9580 H   0  0  0  0  0  0  0  0  0  0  0  0
   27.3720   15.9470   24.9580 H   0  0  0  0  0  0  0  0  0  0  0  0
   26.5750   15.5250   26.4930 H   0  0  0  0  0  0  0  0  0  0  0  0
   26.9160   19.6460   24.4870 H   0  0  0  0  0  0  0  0  0  0  0  0
   26.5210   18.1990   23.5280 H   0  0  0  0  0  0  0  0  0  0  0  0
   28.0510   18.2760   24.4340 H   0  0  0  0  0  0  0  0  0  0  0  0
   25.2260   11.5880   23.6180 H   0  0  0  0  0  0  0  0  0  0  0  0
   22.4830   12.0030   22.4890 H   0  0  0  0  0  0  0  0  0  0  0  0
   21.5640   10.2310   23.5720 H   0  0  0  0  0  0  0  0  0  0  0  0
   24.0950    9.6970   24.8120 H   0  0  0  0  0  0  0  0  0  0  0  0
   22.7910    9.8820   21.3350 H   0  0  0  0  0  0  0  0  0  0  0  0
   24.3990    9.6980   22.0750 H   0  0  0  0  0  0  0  0  0  0  0  0
   25.1360   11.7610   20.8710 H   0  0  0  0  0  0  0  0  0  0  0  0
   23.9320    9.5210   19.1060 H   0  0  0  0  0  0  0  0  0  0  0  0
   25.5040    9.4240   19.9350 H   0  0  0  0  0  0  0  0  0  0  0  0
   25.2650   10.5930   18.6150 H   0  0  0  0  0  0  0  0  0  0  0  0
   22.4850   11.5570   19.3750 H   0  0  0  0  0  0  0  0  0  0  0  0
   23.8410   12.6320   18.9570 H   0  0  0  0  0  0  0  0  0  0  0  0
   22.9600   12.8630   20.4860 H   0  0  0  0  0  0  0  0  0  0  0  0
   21.8120   12.3550   24.9610 H   0  0  0  0  0  0  0  0  0  0  0  0
   22.7970   11.3220   26.0240 H   0  0  0  0  0  0  0  0  0  0  0  0
   20.7610    9.7080   25.8700 H   0  0  0  0  0  0  0  0  0  0  0  0
   20.5890   12.3490   27.4720 H   0  0  0  0  0  0  0  0  0  0  0  0
   21.5410   10.9270   27.9600 H   0  0  0  0  0  0  0  0  0  0  0  0
   19.7640   10.8360   27.9180 H   0  0  0  0  0  0  0  0  0  0  0  0
   17.2140   11.1240   23.7680 H   0  0  0  0  0  0  0  0  0  0  0  0
   16.5690   11.5320   25.3760 H   0  0  0  0  0  0  0  0  0  0  0  0
   18.4400    9.5660   25.8840 H   0  0  0  0  0  0  0  0  0  0  0  0
   16.1730    9.0060   25.6910 H   0  0  0  0  0  0  0  0  0  0  0  0
   16.4920    8.8450   23.9470 H   0  0  0  0  0  0  0  0  0  0  0  0
   14.3550   10.7040   25.0840 H   0  0  0  0  0  0  0  0  0  0  0  0
   14.0250    9.0200   24.6100 H   0  0  0  0  0  0  0  0  0  0  0  0
   15.0920   11.2110   22.7580 H   0  0  0  0  0  0  0  0  0  0  0  0
   13.4210   10.6000   22.7850 H   0  0  0  0  0  0  0  0  0  0  0  0
   14.7520    9.5290   22.2850 H   0  0  0  0  0  0  0  0  0  0  0  0
  1  2  2  0  0  0  0
  1  3  1  0  0  0  0
  1  4  1  0  0  0  0
  3 38  1  0  0  0  0
  3 39  1  0  0  0  0
  3 40  1  0  0  0  0
  4  5  1  0  0  0  0
  4 41  1  0  0  0  0
  5  6  1  0  0  0  0
  5  8  1  0  0  0  0
  5 42  1  0  0  0  0
  6  7  2  0  0  0  0
  6 12  1  0  0  0  0
  8  9  1  0  0  0  0
  8 43  1  0  0  0  0
  8 44  1  0  0  0  0
  9 10  1  0  0  0  0
  9 11  1  0  0  0  0
  9 45  1  0  0  0  0
 10 46  1  0  0  0  0
 10 47  1  0  0  0  0
 10 48  1  0  0  0  0
 11 49  1  0  0  0  0
 11 50  1  0  0  0  0
 11 51  1  0  0  0  0
 12 13  1  0  0  0  0
 12 52  1  0  0  0  0
 13 14  1  0  0  0  0
 13 16  1  0  0  0  0
 13 53  1  0  0  0  0
 14 15  2  0  0  0  0
 14 20  1  0  0  0  0
 16 17  1  0  0  0  0
 16 54  1  0  0  0  0
 16 55  1  0  0  0  0
 17 18  1  0  0  0  0
 17 56  1  0  0  0  0
 17 57  1  0  0  0  0
 18 19  1  0  0  0  0
 19 58  1  0  0  0  0
 19 59  1  0  0  0  0
 19 60  1  0  0  0  0
 20 21  1  0  0  0  0
 20 61  1  0  0  0  0
 21 22  1  0  0  0  0
 21 24  1  0  0  0  0
 21 62  1  0  0  0  0
 22 23  1  0  0  0  0
 22 28  1  0  0  0  0
 22 63  1  0  0  0  0
 23 64  1  0  0  0  0
 24 25  1  0  0  0  0
 24 65  1  0  0  0  0
 24 66  1  0  0  0  0
 25 26  1  0  0  0  0
 25 27  1  0  0  0  0
 25 67  1  0  0  0  0
 26 68  1  0  0  0  0
 26 69  1  0  0  0  0
 26 70  1  0  0  0  0
 27 71  1  0  0  0  0
 27 72  1  0  0  0  0
 27 73  1  0  0  0  0
 28 29  1  0  0  0  0
 28 74  1  0  0  0  0
 28 75  1  0  0  0  0
 29 30  1  0  0  0  0
 29 31  1  0  0  0  0
 29 76  1  0  0  0  0
 30 77  1  0  0  0  0
 30 78  1  0  0  0  0
 30 79  1  0  0  0  0
 31 32  2  0  0  0  0
 31 34  1  0  0  0  0
 33 34  1  0  0  0  0
 33 35  1  0  0  0  0
 33 80  1  0  0  0  0
 33 81  1  0  0  0  0
 34 82  1  0  0  0  0
 35 36  1  0  0  0  0
 35 83  1  0  0  0  0
 35 84  1  0  0  0  0
 36 37  1  0  0  0  0
 36 85  1  0  0  0  0
 36 86  1  0  0  0  0
 37 87  1  0  0  0  0
 37 88  1  0  0  0  0
 37 89  1  0  0  0  0
M  END
>  <PARENT_CMPD_ID>
3K5D

>  <STANDARD_TYPE>
IC50

>  <RELATION>
=

>  <STANDARD_VALUE>
0.052999999

>  <STANDARD_UNITS>
uM

>  <COMPOUND_KEY>
3

>  <PUBMED_ID>
20172717

>  <JOURNAL>
Bioorg.Med.Chem.Lett.

>  <YEAR>
2010

>  <VOLUME>
20

>  <FIRST_PAGE>
1924

>  <Company>
U.Montreal

>  <Resolution>
2.9000001

>  <idx>
79

>  <Model>
Train

>  <target>
7.2757239

>  <des_pred_mlr>
6.6321402

>  <RF_Canvas>
6.9982138

>  <DNN_Canvas>
6.9908543

>  <pred_CoMFA>
7.0008001

>  <pred_COMSIA>
7.0865002

>  <pred_abm5>
6.8572855

>  <pred_ff8>
6.5508652

>  <pred_gau6>
7.0250998

>  <CID>
BACE_79

>  <active>
1

>  <des_class_bayes>
1

>  <maacs_class_bayes>
0

>  <radial_class_bayes>
1

>  <dend_class_bayes>
1

>  <molprint_class_bayes>
1

>  <RF_canvas>
1

>  <DNN_canvas>
1

$$$$
4J17_3980
  MOE2015           3D

 42 44  0  0  1  0  0  0  0  0999 V2000
   31.3890   10.2510   21.8650 C   0  0  0  0  0  0  0  0  0  0  0  0
   30.3500   10.6560   21.0380 C   0  0  0  0  0  0  0  0  0  0  0  0
   29.0790   10.1100   21.1650 C   0  0  0  0  0  0  0  0  0  0  0  0
   28.8160    9.1850   22.0490 N   0  0  0  0  0  0  0  0  0  0  0  0
   29.7270    8.7420   22.9000 C   0  0  0  0  0  0  0  0  0  0  0  0
   26.7020   10.2050   20.7440 N   0  0  0  0  0  0  0  0  0  0  0  0
   22.9700   11.4590   19.4090 C   0  0  0  0  0  0  0  0  0  0  0  0
   31.0250    9.2780   22.8380 C   0  0  0  0  0  0  0  0  0  0  0  0
   27.9550   10.5500   20.3310 C   0  0  0  0  0  0  0  0  0  0  0  0
   28.1470   11.2580   19.3480 O   0  0  0  0  0  0  0  0  0  0  0  0
   32.0270    8.7890   23.7310 C   0  0  0  0  0  0  0  0  0  0  0  0
   32.8220    8.4120   24.4190 N   0  0  0  0  0  0  0  0  0  0  0  0
   25.4820   10.5790   20.1900 C   0  0  0  0  0  0  0  0  0  0  0  0
   25.3610   11.2700   18.9390 C   0  0  0  0  0  0  0  0  0  0  0  0
   24.0750   11.7390   18.5790 C   0  0  0  0  0  0  0  0  0  0  0  0
   23.1150   10.7640   20.6660 C   0  0  0  0  0  0  0  0  0  0  0  0
   24.3810   10.3700   21.0490 C   0  0  0  0  0  0  0  0  0  0  0  0
   21.6740   11.8690   19.0890 F   0  0  0  0  0  0  0  0  0  0  0  0
   21.9110   10.5470   21.6180 C   0  0  3  0  0  0  0  0  0  0  0  0
   21.4210   11.8630   22.3010 C   0  0  0  0  0  0  0  0  0  0  0  0
   22.4490   12.3670   23.3080 C   0  0  0  0  0  0  0  0  0  0  0  0
   22.5880   11.2370   24.2520 O   0  0  0  0  0  0  0  0  0  0  0  0
   22.5360    9.9620   23.8910 C   0  0  0  0  0  0  0  0  0  0  0  0
   22.2390    9.5650   22.7000 N   0  0  0  0  0  0  0  0  0  0  0  0
   20.7420    9.9320   20.8950 C   0  0  0  0  0  0  0  0  0  0  0  0
   21.0960    8.7270   20.3060 F   0  0  0  0  0  0  0  0  0  0  0  0
   19.7430    9.6760   21.7930 F   0  0  0  0  0  0  0  0  0  0  0  0
   22.8820    9.0220   24.8910 N   0  0  0  0  0  0  0  0  0  0  0  0
   32.3920   10.6420   21.7770 H   0  0  0  0  0  0  0  0  0  0  0  0
   30.5330   11.4070   20.2840 H   0  0  0  0  0  0  0  0  0  0  0  0
   29.4780    7.9840   23.6280 H   0  0  0  0  0  0  0  0  0  0  0  0
   26.6540    9.6030   21.5530 H   0  0  0  0  0  0  0  0  0  0  0  0
   26.2160   11.4260   18.2980 H   0  0  0  0  0  0  0  0  0  0  0  0
   23.9410   12.3090   17.6720 H   0  0  0  0  0  0  0  0  0  0  0  0
   24.5300    9.9000   22.0100 H   0  0  0  0  0  0  0  0  0  0  0  0
   20.4810   11.6690   22.8170 H   0  0  0  0  0  0  0  0  0  0  0  0
   21.2660   12.6250   21.5370 H   0  0  0  0  0  0  0  0  0  0  0  0
   22.0890   13.2600   23.8190 H   0  0  0  0  0  0  0  0  0  0  0  0
   23.3980   12.5860   22.8190 H   0  0  0  0  0  0  0  0  0  0  0  0
   20.4170   10.6320   20.1250 H   0  0  0  0  0  0  0  0  0  0  0  0
   22.8970    8.0360   24.6740 H   0  0  0  0  0  0  0  0  0  0  0  0
   23.1140    9.3370   25.8220 H   0  0  0  0  0  0  0  0  0  0  0  0
  1  2  1  0  0  0  0
  1  8  2  0  0  0  0
  1 29  1  0  0  0  0
  2  3  2  0  0  0  0
  2 30  1  0  0  0  0
  3  4  1  0  0  0  0
  3  9  1  0  0  0  0
  4  5  2  0  0  0  0
  5  8  1  0  0  0  0
  5 31  1  0  0  0  0
  6  9  1  0  0  0  0
  6 13  1  0  0  0  0
  6 32  1  0  0  0  0
  7 15  2  0  0  0  0
  7 16  1  0  0  0  0
  7 18  1  0  0  0  0
  8 11  1  0  0  0  0
  9 10  2  0  0  0  0
 11 12  3  0  0  0  0
 13 14  2  0  0  0  0
 13 17  1  0  0  0  0
 14 15  1  0  0  0  0
 14 33  1  0  0  0  0
 15 34  1  0  0  0  0
 16 17  2  0  0  0  0
 16 19  1  0  0  0  0
 17 35  1  0  0  0  0
 19 20  1  0  0  0  0
 19 24  1  0  0  0  0
 19 25  1  0  0  0  0
 20 21  1  0  0  0  0
 20 36  1  0  0  0  0
 20 37  1  0  0  0  0
 21 22  1  0  0  0  0
 21 38  1  0  0  0  0
 21 39  1  0  0  0  0
 22 23  1  0  0  0  0
 23 24  2  0  0  0  0
 23 28  1  0  0  0  0
 25 26  1  0  0  0  0
 25 27  1  0  0  0  0
 25 40  1  0  0  0  0
 28 41  1  0  0  0  0
 28 42  1  0  0  0  0
M  END
>  <PARENT_CMPD_ID>
4J17

>  <STANDARD_TYPE>
IC50

>  <RELATION>
=

>  <STANDARD_VALUE>
0.054000001

>  <STANDARD_UNITS>
uM

>  <COMPOUND_KEY>
69

>  <PUBMED_ID>
23590342

>  <JOURNAL>
J.Med.Chem.

>  <YEAR>
2013

>  <VOLUME>
56

>  <FIRST_PAGE>
3980

>  <Company>
Roche

>  <Resolution>
1.8099999

>  <idx>
80

>  <Model>
Train

>  <target>
7.2676063

>  <des_pred_mlr>
6.5289001

>  <RF_Canvas>
7.1648359

>  <DNN_Canvas>
6.8948398

>  <pred_CoMFA>
7.4411998

>  <pred_COMSIA>
6.7402

>  <pred_abm5>
7.3845816

>  <pred_ff8>
7.3687887

>  <pred_gau6>
7.4210997

>  <CID>
BACE_80

>  <active>
1

>  <des_class_bayes>
1

>  <maacs_class_bayes>
1

>  <radial_class_bayes>
1

>  <dend_class_bayes>
1

>  <molprint_class_bayes>
1

>  <RF_canvas>
1

>  <DNN_canvas>
1

$$$$
3VEU_3364
  MOE2015           3D

 90 93  0  0  1  0  0  0  0  0999 V2000
   29.4160   13.3120   21.9050 N   0  3  3  0  0  0  0  0  0  0  0  0
   29.5810   12.8000   22.7600 H   0  0  0  0  0  0  0  0  0  0  0  0
   28.2730   14.2030   22.2870 C   0  0  3  0  0  0  0  0  0  0  0  0
   28.9620   15.5830   22.4390 C   0  0  0  0  0  0  0  0  0  0  0  0
   29.4770   15.6670   23.3960 H   0  0  0  0  0  0  0  0  0  0  0  0
   28.2450   16.3980   22.3390 H   0  0  0  0  0  0  0  0  0  0  0  0
   29.9570   15.5640   21.2660 C   0  0  0  0  0  0  0  0  0  0  0  0
   30.7040   16.3540   21.3490 H   0  0  0  0  0  0  0  0  0  0  0  0
   29.4550   15.6380   20.3010 H   0  0  0  0  0  0  0  0  0  0  0  0
   30.5620   14.1660   21.5000 C   0  0  0  0  0  0  0  0  0  0  0  0
   31.0170   13.7880   20.5850 H   0  0  0  0  0  0  0  0  0  0  0  0
   31.3120   14.2010   22.2910 H   0  0  0  0  0  0  0  0  0  0  0  0
   27.1250   14.2370   21.2320 C   0  0  0  0  0  0  0  0  0  0  0  0
   27.1170   13.3130   20.6540 H   0  0  0  0  0  0  0  0  0  0  0  0
   27.2560   15.0850   20.5590 H   0  0  0  0  0  0  0  0  0  0  0  0
   25.8090   14.3830   22.0230 C   0  0  0  0  0  0  0  0  0  0  0  0
   25.0280   13.7440   21.6100 H   0  0  0  0  0  0  0  0  0  0  0  0
   25.4660   15.4180   22.0300 H   0  0  0  0  0  0  0  0  0  0  0  0
   26.1950   13.9460   23.3610 N   0  0  0  0  0  0  0  0  0  0  0  0
   27.5270   13.8000   23.5360 C   0  0  0  0  0  0  0  0  0  0  0  0
   28.1000   13.4110   24.5470 O   0  0  0  0  0  0  0  0  0  0  0  0
   25.2450   13.6840   24.4520 C   0  0  3  0  0  0  0  0  0  0  0  0
   25.7040   12.9770   25.1430 H   0  0  0  0  0  0  0  0  0  0  0  0
   23.9940   12.9820   23.9640 C   0  0  0  0  0  0  0  0  0  0  0  0
   24.0980   11.6500   23.6790 N   0  0  0  0  0  0  0  0  0  0  0  0
   24.9920   11.2000   23.8130 H   0  0  0  0  0  0  0  0  0  0  0  0
   22.9490   13.6200   23.8440 O   0  0  0  0  0  0  0  0  0  0  0  0
   29.2520   12.0420   21.1490 C   0  0  0  0  0  0  0  0  0  0  0  0
   30.1140   11.9020   20.4970 H   0  0  0  0  0  0  0  0  0  0  0  0
   28.3460   12.1020   20.5450 H   0  0  0  0  0  0  0  0  0  0  0  0
   29.1410   10.8280   22.1080 C   0  0  0  0  0  0  0  0  0  0  0  0
   28.2660   10.9570   22.7440 H   0  0  0  0  0  0  0  0  0  0  0  0
   30.0370   10.7810   22.7270 H   0  0  0  0  0  0  0  0  0  0  0  0
   29.0020    9.5020   21.3210 C   0  0  0  0  0  0  0  0  0  0  0  0
   28.1080    9.5410   20.6990 H   0  0  0  0  0  0  0  0  0  0  0  0
   28.9220    8.6710   22.0210 H   0  0  0  0  0  0  0  0  0  0  0  0
   29.8790    9.3610   20.6890 H   0  0  0  0  0  0  0  0  0  0  0  0
   24.9750   14.9720   25.2800 C   0  0  0  0  0  0  0  0  0  0  0  0
   24.5120   15.7240   24.6410 H   0  0  0  0  0  0  0  0  0  0  0  0
   25.9170   15.3570   25.6710 H   0  0  0  0  0  0  0  0  0  0  0  0
   24.3060   14.7380   26.1080 H   0  0  0  0  0  0  0  0  0  0  0  0
   22.9720   10.8340   23.1860 C   0  0  3  0  0  0  0  0  0  0  0  0
   22.1860   11.4990   22.8260 H   0  0  0  0  0  0  0  0  0  0  0  0
   22.3720    9.9770   24.3440 C   0  0  3  0  0  0  0  0  0  0  0  0
   23.2020    9.3660   24.6980 H   0  0  0  0  0  0  0  0  0  0  0  0
   21.8670   10.8290   25.5330 C   0  0  0  0  0  0  0  0  0  0  0  0
   21.1990   11.6040   25.1570 H   0  0  0  0  0  0  0  0  0  0  0  0
   22.7210   11.2930   26.0260 H   0  0  0  0  0  0  0  0  0  0  0  0
   21.1370    9.9980   26.5140 N   0  3  0  0  0  0  0  0  0  0  0  0
   21.8190    9.5330   27.0970 H   0  0  0  0  0  0  0  0  0  0  0  0
   20.6050    9.3080   26.0030 H   0  0  0  0  0  0  0  0  0  0  0  0
   20.2010   10.7330   27.4020 C   0  0  0  0  0  0  0  0  0  0  0  0
   20.7490   11.5260   27.9110 H   0  0  0  0  0  0  0  0  0  0  0  0
   19.7980   10.0390   28.1390 H   0  0  0  0  0  0  0  0  0  0  0  0
   23.4210    9.9490   21.9850 C   0  0  0  0  0  0  0  0  0  0  0  0
   22.5420    9.4260   21.6080 H   0  0  0  0  0  0  0  0  0  0  0  0
   24.1440    9.2230   22.3560 H   0  0  0  0  0  0  0  0  0  0  0  0
   24.0660   10.6990   20.8080 C   0  0  0  0  0  0  0  0  0  0  0  0
   25.2310   10.1520   20.2170 C   0  0  0  0  0  0  0  0  0  0  0  0
   25.6430    9.2310   20.6010 H   0  0  0  0  0  0  0  0  0  0  0  0
   25.8610   10.8020   19.1270 C   0  0  0  0  0  0  0  0  0  0  0  0
   26.7480   10.3760   18.6820 H   0  0  0  0  0  0  0  0  0  0  0  0
   25.3260   12.0110   18.6220 C   0  0  0  0  0  0  0  0  0  0  0  0
   25.8050   12.5100   17.7920 H   0  0  0  0  0  0  0  0  0  0  0  0
   24.1620   12.5650   19.2070 C   0  0  0  0  0  0  0  0  0  0  0  0
   23.7520   13.4870   18.8210 H   0  0  0  0  0  0  0  0  0  0  0  0
   23.5330   11.9140   20.2970 C   0  0  0  0  0  0  0  0  0  0  0  0
   22.6460   12.3420   20.7410 H   0  0  0  0  0  0  0  0  0  0  0  0
   21.3160    9.1110   23.8920 O   0  0  0  0  0  0  0  0  0  0  0  0
   20.5960    9.6670   23.5850 H   0  0  0  0  0  0  0  0  0  0  0  0
   19.0310   11.3610   26.6190 C   0  0  0  0  0  0  0  0  0  0  0  0
   18.8610   12.7670   26.6340 C   0  0  0  0  0  0  0  0  0  0  0  0
   19.5450   13.3890   27.1910 H   0  0  0  0  0  0  0  0  0  0  0  0
   17.7910   13.3540   25.9160 C   0  0  0  0  0  0  0  0  0  0  0  0
   17.6630   14.4260   25.9270 H   0  0  0  0  0  0  0  0  0  0  0  0
   16.8890   12.5480   25.1850 C   0  0  0  0  0  0  0  0  0  0  0  0
   16.0790   13.0100   24.6410 H   0  0  0  0  0  0  0  0  0  0  0  0
   17.0380   11.1380   25.1590 C   0  0  0  0  0  0  0  0  0  0  0  0
   18.1190   10.5580   25.8820 C   0  0  0  0  0  0  0  0  0  0  0  0
   18.2480    9.4860   25.8700 H   0  0  0  0  0  0  0  0  0  0  0  0
   16.0280   10.2840   24.3540 C   0  0  0  0  0  0  0  0  0  0  0  0
   15.1610   10.9290   24.2120 H   0  0  0  0  0  0  0  0  0  0  0  0
   16.5630    9.9070   22.9520 C   0  0  0  0  0  0  0  0  0  0  0  0
   17.4340    9.2600   23.0570 H   0  0  0  0  0  0  0  0  0  0  0  0
   16.8460   10.8130   22.4150 H   0  0  0  0  0  0  0  0  0  0  0  0
   15.7860    9.3830   22.3960 H   0  0  0  0  0  0  0  0  0  0  0  0
   15.5120    9.0350   25.1240 C   0  0  0  0  0  0  0  0  0  0  0  0
   16.3400    8.3470   25.2970 H   0  0  0  0  0  0  0  0  0  0  0  0
   14.7430    8.5370   24.5340 H   0  0  0  0  0  0  0  0  0  0  0  0
   15.0920    9.3460   26.0800 H   0  0  0  0  0  0  0  0  0  0  0  0
  1  2  1  0  0  0  0
  1  3  1  0  0  0  0
  1 10  1  0  0  0  0
  1 28  1  0  0  0  0
  3  4  1  0  0  0  0
  3 13  1  0  0  0  0
  3 20  1  0  0  0  0
  4  5  1  0  0  0  0
  4  6  1  0  0  0  0
  4  7  1  0  0  0  0
  7  8  1  0  0  0  0
  7  9  1  0  0  0  0
  7 10  1  0  0  0  0
 10 11  1  0  0  0  0
 10 12  1  0  0  0  0
 13 14  1  0  0  0  0
 13 15  1  0  0  0  0
 13 16  1  0  0  0  0
 16 17  1  0  0  0  0
 16 18  1  0  0  0  0
 16 19  1  0  0  0  0
 19 20  1  0  0  0  0
 19 22  1  0  0  0  0
 20 21  2  0  0  0  0
 22 23  1  0  0  0  0
 22 24  1  0  0  0  0
 22 38  1  0  0  0  0
 24 25  1  0  0  0  0
 24 27  2  0  0  0  0
 25 26  1  0  0  0  0
 25 42  1  0  0  0  0
 28 29  1  0  0  0  0
 28 30  1  0  0  0  0
 28 31  1  0  0  0  0
 31 32  1  0  0  0  0
 31 33  1  0  0  0  0
 31 34  1  0  0  0  0
 34 35  1  0  0  0  0
 34 36  1  0  0  0  0
 34 37  1  0  0  0  0
 38 39  1  0  0  0  0
 38 40  1  0  0  0  0
 38 41  1  0  0  0  0
 42 43  1  0  0  0  0
 42 44  1  0  0  0  0
 42 55  1  0  0  0  0
 44 45  1  0  0  0  0
 44 46  1  0  0  0  0
 44 69  1  0  0  0  0
 46 47  1  0  0  0  0
 46 48  1  0  0  0  0
 46 49  1  0  0  0  0
 49 50  1  0  0  0  0
 49 51  1  0  0  0  0
 49 52  1  0  0  0  0
 52 53  1  0  0  0  0
 52 54  1  0  0  0  0
 52 71  1  0  0  0  0
 55 56  1  0  0  0  0
 55 57  1  0  0  0  0
 55 58  1  0  0  0  0
 58 59  1  0  0  0  0
 58 67  2  0  0  0  0
 59 60  1  0  0  0  0
 59 61  2  0  0  0  0
 61 62  1  0  0  0  0
 61 63  1  0  0  0  0
 63 64  1  0  0  0  0
 63 65  2  0  0  0  0
 65 66  1  0  0  0  0
 65 67  1  0  0  0  0
 67 68  1  0  0  0  0
 69 70  1  0  0  0  0
 71 72  1  0  0  0  0
 71 79  2  0  0  0  0
 72 73  1  0  0  0  0
 72 74  2  0  0  0  0
 74 75  1  0  0  0  0
 74 76  1  0  0  0  0
 76 77  1  0  0  0  0
 76 78  2  0  0  0  0
 78 79  1  0  0  0  0
 78 81  1  0  0  0  0
 79 80  1  0  0  0  0
 81 82  1  0  0  0  0
 81 83  1  0  0  0  0
 81 87  1  0  0  0  0
 83 84  1  0  0  0  0
 83 85  1  0  0  0  0
 83 86  1  0  0  0  0
 87 88  1  0  0  0  0
 87 89  1  0  0  0  0
 87 90  1  0  0  0  0
M  CHG  1   1   1
M  CHG  1  49   1
M  END
>  <PARENT_CMPD_ID>
3VEU

>  <STANDARD_TYPE>
IC50

>  <RELATION>
=

>  <STANDARD_VALUE>
0.055

>  <STANDARD_UNITS>
uM

>  <COMPOUND_KEY>
3

>  <PUBMED_ID>
22380629

>  <JOURNAL>
J.Med.Chem.

>  <YEAR>
2012

>  <VOLUME>
55

>  <FIRST_PAGE>
3364

>  <Company>
Novartis

>  <Resolution>
1.52

>  <idx>
81

>  <Model>
Train

>  <target>
7.2596374

>  <des_pred_mlr>
6.49826

>  <RF_Canvas>
7.3707404

>  <DNN_Canvas>
6.7297664

>  <pred_CoMFA>
6.9696002

>  <pred_COMSIA>
7.5848999

>  <pred_abm5>
7.4935732

>  <pred_ff8>
8.250596

>  <pred_gau6>
7.6932974

>  <CID>
BACE_81

>  <active>
1

>  <des_class_bayes>
1

>  <maacs_class_bayes>
0

>  <radial_class_bayes>
1

>  <dend_class_bayes>
1

>  <molprint_class_bayes>
1

>  <RF_canvas>
1

>  <DNN_canvas>
1

$$$$
3VG1_3364
  MOE2015           3D

 70 73  0  0  1  0  0  0  0  0999 V2000
   29.9120   10.5350   22.2840 F   0  0  0  0  0  0  0  0  0  0  0  0
   29.0750   11.3680   21.6070 C   0  0  0  0  0  0  0  0  0  0  0  0
   28.1010   11.3880   22.0960 H   0  0  0  0  0  0  0  0  0  0  0  0
   29.5820   12.6300   21.6070 F   0  0  0  0  0  0  0  0  0  0  0  0
   28.8970   10.8520   20.1590 C   0  0  0  0  0  0  0  0  0  0  0  0
   28.8590    9.7630   20.1750 H   0  0  0  0  0  0  0  0  0  0  0  0
   29.7490   11.1770   19.5620 H   0  0  0  0  0  0  0  0  0  0  0  0
   27.6300   11.3760   19.5270 C   0  0  0  0  0  0  0  0  0  0  0  0
   27.5210   12.1590   18.4380 C   0  0  0  0  0  0  0  0  0  0  0  0
   28.3540   12.5300   17.8600 H   0  0  0  0  0  0  0  0  0  0  0  0
   26.2610   12.4080   18.1780 N   0  0  0  0  0  0  0  0  0  0  0  0
   25.9400   12.9710   17.4040 H   0  0  0  0  0  0  0  0  0  0  0  0
   25.4500   11.8180   19.0740 C   0  0  0  0  0  0  0  0  0  0  0  0
   26.2240   11.1190   20.0030 C   0  0  0  0  0  0  0  0  0  0  0  0
   25.6390   10.4040   21.0670 C   0  0  0  0  0  0  0  0  0  0  0  0
   26.2480    9.8650   21.7770 H   0  0  0  0  0  0  0  0  0  0  0  0
   24.2230   10.4140   21.1760 C   0  0  0  0  0  0  0  0  0  0  0  0
   23.4310   11.1230   20.2250 C   0  0  0  0  0  0  0  0  0  0  0  0
   22.3550   11.1170   20.3170 H   0  0  0  0  0  0  0  0  0  0  0  0
   24.0390   11.8370   19.1580 C   0  0  0  0  0  0  0  0  0  0  0  0
   23.4440   12.3760   18.4360 H   0  0  0  0  0  0  0  0  0  0  0  0
   23.5700    9.6550   22.3430 C   0  0  0  0  0  0  0  0  0  0  0  0
   24.3310    9.0590   22.8470 H   0  0  0  0  0  0  0  0  0  0  0  0
   22.7960    8.9970   21.9480 H   0  0  0  0  0  0  0  0  0  0  0  0
   22.9220   10.6370   23.3810 C   0  0  3  0  0  0  0  0  0  0  0  0
   22.1500   11.1870   22.8430 H   0  0  0  0  0  0  0  0  0  0  0  0
   22.2390    9.8730   24.5640 C   0  0  3  0  0  0  0  0  0  0  0  0
   23.0330    9.3330   25.0790 H   0  0  0  0  0  0  0  0  0  0  0  0
   21.5370   10.8200   25.5930 C   0  0  3  0  0  0  0  0  0  0  0  0
   20.8330   11.4000   24.9960 H   0  0  0  0  0  0  0  0  0  0  0  0
   22.4600   11.8930   26.2370 C   0  0  0  0  0  0  0  0  0  0  0  0
   23.2630   11.4030   26.7880 H   0  0  0  0  0  0  0  0  0  0  0  0
   21.8790   12.5160   26.9180 H   0  0  0  0  0  0  0  0  0  0  0  0
   23.1570   12.9110   24.9340 S   0  0  0  0  0  0  0  0  0  0  0  0
   23.9630   11.6610   23.9340 C   0  0  0  0  0  0  0  0  0  0  0  0
   24.4680   12.1440   23.0980 H   0  0  0  0  0  0  0  0  0  0  0  0
   24.6950   11.1320   24.5450 H   0  0  0  0  0  0  0  0  0  0  0  0
   22.0870   13.5260   24.1700 O   0  0  0  0  0  0  0  0  0  0  0  0
   24.2040   13.7370   25.5080 O   0  0  0  0  0  0  0  0  0  0  0  0
   20.7530   10.0620   26.6060 N   0  3  0  0  0  0  0  0  0  0  0  0
   21.4250    9.5920   27.1950 H   0  0  0  0  0  0  0  0  0  0  0  0
   20.2140    9.3770   26.0970 H   0  0  0  0  0  0  0  0  0  0  0  0
   19.8000   10.7570   27.5210 C   0  0  0  0  0  0  0  0  0  0  0  0
   20.3440   11.4670   28.1440 H   0  0  0  0  0  0  0  0  0  0  0  0
   19.3020   10.0240   28.1560 H   0  0  0  0  0  0  0  0  0  0  0  0
   18.7540   11.5050   26.6790 C   0  0  0  0  0  0  0  0  0  0  0  0
   17.8510   10.7640   25.8850 C   0  0  0  0  0  0  0  0  0  0  0  0
   17.9190    9.6860   25.8980 H   0  0  0  0  0  0  0  0  0  0  0  0
   16.8560   11.3710   25.0680 C   0  0  0  0  0  0  0  0  0  0  0  0
   16.8060   12.7970   25.0860 C   0  0  0  0  0  0  0  0  0  0  0  0
   16.0690   13.3050   24.4820 H   0  0  0  0  0  0  0  0  0  0  0  0
   17.7000   13.5660   25.8770 C   0  0  0  0  0  0  0  0  0  0  0  0
   17.6360   14.6440   25.8690 H   0  0  0  0  0  0  0  0  0  0  0  0
   18.6750   12.9220   26.6760 C   0  0  0  0  0  0  0  0  0  0  0  0
   19.3550   13.5050   27.2800 H   0  0  0  0  0  0  0  0  0  0  0  0
   15.9150   10.4380   24.2230 C   0  0  0  0  0  0  0  0  0  0  0  0
   14.6700   11.1830   23.6400 C   0  0  0  0  0  0  0  0  0  0  0  0
   15.0020   12.0290   23.0380 H   0  0  0  0  0  0  0  0  0  0  0  0
   14.0450   11.5420   24.4580 H   0  0  0  0  0  0  0  0  0  0  0  0
   14.0950   10.4980   23.0170 H   0  0  0  0  0  0  0  0  0  0  0  0
   16.6730    9.8270   23.0030 C   0  0  0  0  0  0  0  0  0  0  0  0
   17.0600   10.6300   22.3760 H   0  0  0  0  0  0  0  0  0  0  0  0
   15.9880    9.2100   22.4220 H   0  0  0  0  0  0  0  0  0  0  0  0
   17.5010    9.2140   23.3590 H   0  0  0  0  0  0  0  0  0  0  0  0
   15.3900    9.2370   25.0750 C   0  0  0  0  0  0  0  0  0  0  0  0
   14.8510    9.6160   25.9430 H   0  0  0  0  0  0  0  0  0  0  0  0
   16.2330    8.6310   25.4070 H   0  0  0  0  0  0  0  0  0  0  0  0
   14.7200    8.6270   24.4690 H   0  0  0  0  0  0  0  0  0  0  0  0
   21.2200    9.0020   24.0330 O   0  0  0  0  0  0  0  0  0  0  0  0
   20.5650    9.5530   23.5990 H   0  0  0  0  0  0  0  0  0  0  0  0
  1  2  1  0  0  0  0
  2  3  1  0  0  0  0
  2  4  1  0  0  0  0
  2  5  1  0  0  0  0
  5  6  1  0  0  0  0
  5  7  1  0  0  0  0
  5  8  1  0  0  0  0
  8  9  2  0  0  0  0
  8 14  1  0  0  0  0
  9 10  1  0  0  0  0
  9 11  1  0  0  0  0
 11 12  1  0  0  0  0
 11 13  1  0  0  0  0
 13 14  1  0  0  0  0
 13 20  2  0  0  0  0
 14 15  2  0  0  0  0
 15 16  1  0  0  0  0
 15 17  1  0  0  0  0
 17 18  2  0  0  0  0
 17 22  1  0  0  0  0
 18 19  1  0  0  0  0
 18 20  1  0  0  0  0
 20 21  1  0  0  0  0
 22 23  1  0  0  0  0
 22 24  1  0  0  0  0
 22 25  1  0  0  0  0
 25 26  1  0  0  0  0
 25 27  1  0  0  0  0
 25 35  1  0  0  0  0
 27 28  1  0  0  0  0
 27 29  1  0  0  0  0
 27 69  1  0  0  0  0
 29 30  1  0  0  0  0
 29 31  1  0  0  0  0
 29 40  1  0  0  0  0
 31 32  1  0  0  0  0
 31 33  1  0  0  0  0
 31 34  1  0  0  0  0
 34 35  1  0  0  0  0
 34 38  2  0  0  0  0
 34 39  2  0  0  0  0
 35 36  1  0  0  0  0
 35 37  1  0  0  0  0
 40 41  1  0  0  0  0
 40 42  1  0  0  0  0
 40 43  1  0  0  0  0
 43 44  1  0  0  0  0
 43 45  1  0  0  0  0
 43 46  1  0  0  0  0
 46 47  1  0  0  0  0
 46 54  2  0  0  0  0
 47 48  1  0  0  0  0
 47 49  2  0  0  0  0
 49 50  1  0  0  0  0
 49 56  1  0  0  0  0
 50 51  1  0  0  0  0
 50 52  2  0  0  0  0
 52 53  1  0  0  0  0
 52 54  1  0  0  0  0
 54 55  1  0  0  0  0
 56 57  1  0  0  0  0
 56 61  1  0  0  0  0
 56 65  1  0  0  0  0
 57 58  1  0  0  0  0
 57 59  1  0  0  0  0
 57 60  1  0  0  0  0
 61 62  1  0  0  0  0
 61 63  1  0  0  0  0
 61 64  1  0  0  0  0
 65 66  1  0  0  0  0
 65 67  1  0  0  0  0
 65 68  1  0  0  0  0
 69 70  1  0  0  0  0
M  CHG  1  40   1
M  END
>  <PARENT_CMPD_ID>
3VG1

>  <STANDARD_TYPE>
IC50

>  <RELATION>
=

>  <STANDARD_VALUE>
0.055

>  <STANDARD_UNITS>
uM

>  <COMPOUND_KEY>
32a

>  <PUBMED_ID>
22380629

>  <JOURNAL>
J.Med.Chem.

>  <YEAR>
2012

>  <VOLUME>
55

>  <FIRST_PAGE>
3364

>  <Company>
Novartis

>  <Resolution>
1.77

>  <idx>
82

>  <Model>
Train

>  <target>
7.2596374

>  <des_pred_mlr>
6.6655302

>  <RF_Canvas>
7.247128

>  <DNN_Canvas>
6.8643646

>  <pred_CoMFA>
7.1961002

>  <pred_COMSIA>
7.0149999

>  <pred_abm5>
7.0826449

>  <pred_ff8>
7.8661642

>  <pred_gau6>
6.9890633

>  <CID>
BACE_82

>  <active>
1

>  <des_class_bayes>
1

>  <maacs_class_bayes>
1

>  <radial_class_bayes>
1

>  <dend_class_bayes>
1

>  <molprint_class_bayes>
1

>  <RF_canvas>
1

>  <DNN_canvas>
1

$$$$
3UQR_10749
  MOE2015           3D

142146  0  0  1  0  0  0  0  0999 V2000
   29.3760    9.7830   20.2840 C   0  0  0  0  0  0  0  0  0  0  0  0
   30.2120    9.3650   19.7230 H   0  0  0  0  0  0  0  0  0  0  0  0
   28.7390   10.3590   19.6130 H   0  0  0  0  0  0  0  0  0  0  0  0
   28.7970    8.9740   20.7290 H   0  0  0  0  0  0  0  0  0  0  0  0
   32.4930    8.2500   24.1020 C   0  0  0  0  0  0  0  0  0  0  0  0
   33.1220    7.6640   24.7550 H   0  0  0  0  0  0  0  0  0  0  0  0
   33.1200    9.2420   23.1590 C   0  0  0  0  0  0  0  0  0  0  0  0
   34.1930    9.3660   23.1370 H   0  0  0  0  0  0  0  0  0  0  0  0
   31.0240    8.0680   24.1450 C   0  0  0  0  0  0  0  0  0  0  0  0
   30.5840    7.3550   24.8260 H   0  0  0  0  0  0  0  0  0  0  0  0
   32.2550   10.0530   22.2550 C   0  0  0  0  0  0  0  0  0  0  0  0
   32.6940   10.7750   21.5820 H   0  0  0  0  0  0  0  0  0  0  0  0
   30.1530    8.8820   23.2360 C   0  0  0  0  0  0  0  0  0  0  0  0
   29.0800    8.7660   23.2640 H   0  0  0  0  0  0  0  0  0  0  0  0
   28.8200   11.2440   22.1240 N   0  0  0  0  0  0  0  0  0  0  0  0
   28.1250   10.6590   22.5660 H   0  0  0  0  0  0  0  0  0  0  0  0
   30.7810    9.8560   22.2900 C   0  0  0  0  0  0  0  0  0  0  0  0
   29.9000   10.6790   21.3680 C   0  0  3  0  0  0  0  0  0  0  0  0
   30.4690   11.4920   20.9180 H   0  0  0  0  0  0  0  0  0  0  0  0
   26.1160   16.8890   26.1150 C   0  0  0  0  0  0  0  0  0  0  0  0
   25.2400   16.7030   25.4940 H   0  0  0  0  0  0  0  0  0  0  0  0
   26.5190   17.8760   25.8880 H   0  0  0  0  0  0  0  0  0  0  0  0
   25.8320   16.8460   27.1660 H   0  0  0  0  0  0  0  0  0  0  0  0
   29.7270   16.8040   25.6960 C   0  0  0  0  0  0  0  0  0  0  0  0
   29.4070   17.8320   25.5270 H   0  0  0  0  0  0  0  0  0  0  0  0
   29.8740   16.3070   24.7370 H   0  0  0  0  0  0  0  0  0  0  0  0
   30.6640   16.8020   26.2530 H   0  0  0  0  0  0  0  0  0  0  0  0
   29.6020   13.3850   21.6820 O   0  0  0  0  0  0  0  0  0  0  0  0
   22.8230   13.3560   23.7990 O   0  0  0  0  0  0  0  0  0  0  0  0
   28.1780   16.5610   27.9170 O   0  0  0  0  0  0  0  0  0  0  0  0
   28.9300   14.5650   26.8420 O   0  0  0  0  0  0  0  0  0  0  0  0
   26.2660   12.6290   22.9330 C   0  0  0  0  0  0  0  0  0  0  0  0
   26.0590   11.8240   22.2440 H   0  0  0  0  0  0  0  0  0  0  0  0
   27.9510   14.3020   24.0440 C   0  0  0  0  0  0  0  0  0  0  0  0
   28.9520   14.6930   24.1460 H   0  0  0  0  0  0  0  0  0  0  0  0
   25.4320   14.2940   24.7840 C   0  0  0  0  0  0  0  0  0  0  0  0
   24.6300   14.6780   25.3970 H   0  0  0  0  0  0  0  0  0  0  0  0
   28.7670   12.6670   22.2270 C   0  0  0  0  0  0  0  0  0  0  0  0
   23.7980   12.6270   23.6580 C   0  0  0  0  0  0  0  0  0  0  0  0
   27.6590   13.2200   23.0590 C   0  0  0  0  0  0  0  0  0  0  0  0
   25.1970   13.2010   23.7950 C   0  0  0  0  0  0  0  0  0  0  0  0
   26.8300   14.8410   24.8940 C   0  0  0  0  0  0  0  0  0  0  0  0
   27.0900   15.9140   25.8530 N   0  0  0  0  0  0  0  0  0  0  0  0
   28.4840   15.9420   26.6250 S   0  0  0  0  0  0  0  0  0  0  0  0
   23.7550   11.2200   23.3510 N   0  0  0  0  0  0  0  0  0  0  0  0
   24.6010   10.6770   23.2570 H   0  0  0  0  0  0  0  0  0  0  0  0
   22.4480   10.6140   23.1830 C   0  0  3  0  0  0  0  0  0  0  0  0
   21.6620   11.3650   23.1050 H   0  0  0  0  0  0  0  0  0  0  0  0
   22.3610    9.8490   21.8720 C   0  0  0  0  0  0  0  0  0  0  0  0
   22.4800    8.7840   22.0710 H   0  0  0  0  0  0  0  0  0  0  0  0
   21.3860   10.0270   21.4180 H   0  0  0  0  0  0  0  0  0  0  0  0
   23.4630   10.3070   20.8970 C   0  0  0  0  0  0  0  0  0  0  0  0
   23.4940   11.7110   20.3770 C   0  0  0  0  0  0  0  0  0  0  0  0
   22.7370   12.4180   20.6830 H   0  0  0  0  0  0  0  0  0  0  0  0
   24.5350    9.3460   20.4470 C   0  0  0  0  0  0  0  0  0  0  0  0
   24.5270    8.3300   20.8120 H   0  0  0  0  0  0  0  0  0  0  0  0
   24.5820   12.1360   19.4270 C   0  0  0  0  0  0  0  0  0  0  0  0
   24.5970   13.1520   19.0600 H   0  0  0  0  0  0  0  0  0  0  0  0
   25.6210    9.7860   19.4920 C   0  0  0  0  0  0  0  0  0  0  0  0
   26.3820    9.0860   19.1810 H   0  0  0  0  0  0  0  0  0  0  0  0
   25.6430   11.1810   18.9810 C   0  0  0  0  0  0  0  0  0  0  0  0
   26.4150   11.5010   18.2970 H   0  0  0  0  0  0  0  0  0  0  0  0
   22.1830    9.7610   24.4300 C   0  0  3  0  0  0  0  0  0  0  0  0
   21.4910    9.0060   24.0570 H   0  0  0  0  0  0  0  0  0  0  0  0
   23.2560    9.0310   24.8790 O   0  0  0  0  0  0  0  0  0  0  0  0
   23.9050    9.6500   25.2230 H   0  0  0  0  0  0  0  0  0  0  0  0
   21.4150   10.4600   25.5280 C   0  0  0  0  0  0  0  0  0  0  0  0
   21.9830   11.3260   25.8670 H   0  0  0  0  0  0  0  0  0  0  0  0
   21.2730    9.7710   26.3600 H   0  0  0  0  0  0  0  0  0  0  0  0
   20.0460   10.9240   25.0210 C   0  0  0  0  0  0  0  0  0  0  0  0
   19.8880   12.0460   24.5320 O   0  0  0  0  0  0  0  0  0  0  0  0
   18.8940   10.0240   25.1490 N   0  0  0  0  0  0  0  0  0  0  0  0
   18.9700    9.0960   25.5400 H   0  0  0  0  0  0  0  0  0  0  0  0
   17.6100   10.5830   24.6600 C   0  0  3  0  0  0  0  0  0  0  0  0
   17.6850   10.8400   23.6030 H   0  0  0  0  0  0  0  0  0  0  0  0
   17.3220   11.8350   25.4880 C   0  0  0  0  0  0  0  0  0  0  0  0
   17.7660   11.9490   26.6180 O   0  0  0  0  0  0  0  0  0  0  0  0
   16.4770    9.5650   24.7440 C   0  0  0  0  0  0  0  0  0  0  0  0
   16.6110    8.8160   23.9640 H   0  0  0  0  0  0  0  0  0  0  0  0
   16.5020    9.0810   25.7200 H   0  0  0  0  0  0  0  0  0  0  0  0
   15.1200   10.2480   24.5570 C   0  0  0  0  0  0  0  0  0  0  0  0
   15.1260   11.2610   24.9580 H   0  0  0  0  0  0  0  0  0  0  0  0
   14.8130   10.2690   23.0960 C   0  0  0  0  0  0  0  0  0  0  0  0
   14.8110    9.2490   22.7100 H   0  0  0  0  0  0  0  0  0  0  0  0
   15.5710   10.8530   22.5740 H   0  0  0  0  0  0  0  0  0  0  0  0
   13.8330   10.7190   22.9370 H   0  0  0  0  0  0  0  0  0  0  0  0
   14.0980    9.4140   25.2470 C   0  0  0  0  0  0  0  0  0  0  0  0
   14.1100    8.4070   24.8310 H   0  0  0  0  0  0  0  0  0  0  0  0
   13.1120    9.8550   25.1030 H   0  0  0  0  0  0  0  0  0  0  0  0
   14.3240    9.3700   26.3120 H   0  0  0  0  0  0  0  0  0  0  0  0
   16.5370   12.8810   24.9210 N   0  0  0  0  0  0  0  0  0  0  0  0
   16.1870   12.8070   23.9770 H   0  0  0  0  0  0  0  0  0  0  0  0
   16.2500   14.0550   25.7260 C   0  0  3  0  0  0  0  0  0  0  0  0
   16.7210   13.9410   26.7030 H   0  0  0  0  0  0  0  0  0  0  0  0
   14.7770   14.2260   25.9130 C   0  0  0  0  0  0  0  0  0  0  0  0
   14.0090   13.8860   25.0360 O   0  0  0  0  0  0  0  0  0  0  0  0
   16.7630   15.2450   25.0000 C   0  0  0  0  0  0  0  0  0  0  0  0
   16.2680   15.3210   24.0320 H   0  0  0  0  0  0  0  0  0  0  0  0
   17.8380   15.1440   24.8510 H   0  0  0  0  0  0  0  0  0  0  0  0
   16.5600   16.1430   25.5840 H   0  0  0  0  0  0  0  0  0  0  0  0
   14.2170   14.8030   27.1200 N   0  0  0  0  0  0  0  0  0  0  0  0
   12.7440   14.9490   27.1600 C   0  0  3  0  0  0  0  0  0  0  0  0
   12.3480   14.4210   26.2920 H   0  0  0  0  0  0  0  0  0  0  0  0
   12.1420   14.2870   28.3820 C   0  0  0  0  0  0  0  0  0  0  0  0
   11.6580   14.9460   29.2790 O   0  0  0  0  0  0  0  0  0  0  0  0
   12.3050   16.4300   27.0200 C   0  0  0  0  0  0  0  0  0  0  0  0
   11.2260   16.4920   27.1640 H   0  0  0  0  0  0  0  0  0  0  0  0
   12.8080   17.0200   27.7860 H   0  0  0  0  0  0  0  0  0  0  0  0
   12.6510   17.0000   25.6570 C   0  0  0  0  0  0  0  0  0  0  0  0
   11.7560   16.7230   24.5010 C   0  0  0  0  0  0  0  0  0  0  0  0
   10.8680   16.1230   24.6310 H   0  0  0  0  0  0  0  0  0  0  0  0
   13.8870   17.8500   25.4700 C   0  0  0  0  0  0  0  0  0  0  0  0
   14.5280   18.0500   26.3160 H   0  0  0  0  0  0  0  0  0  0  0  0
   12.1000   17.2870   23.1470 C   0  0  0  0  0  0  0  0  0  0  0  0
   11.4610   17.0830   22.3000 H   0  0  0  0  0  0  0  0  0  0  0  0
   14.2340   18.4170   24.1340 C   0  0  0  0  0  0  0  0  0  0  0  0
   15.1210   19.0200   24.0110 H   0  0  0  0  0  0  0  0  0  0  0  0
   13.3410   18.1410   22.9700 C   0  0  0  0  0  0  0  0  0  0  0  0
   13.5790   18.5500   21.9990 H   0  0  0  0  0  0  0  0  0  0  0  0
   15.0540   15.2560   28.2240 C   0  0  0  0  0  0  0  0  0  0  0  0
   14.4230   15.6510   29.0200 H   0  0  0  0  0  0  0  0  0  0  0  0
   15.7270   16.0380   27.8720 H   0  0  0  0  0  0  0  0  0  0  0  0
   15.6380   14.4180   28.6050 H   0  0  0  0  0  0  0  0  0  0  0  0
   12.2350   13.2660   33.2170 C   0  0  0  0  0  0  0  0  0  0  0  0
   11.5100   13.3920   34.0210 H   0  0  0  0  0  0  0  0  0  0  0  0
   12.6800   14.2310   32.9750 H   0  0  0  0  0  0  0  0  0  0  0  0
   13.0160   12.5750   33.5360 H   0  0  0  0  0  0  0  0  0  0  0  0
   13.4410   12.9460   30.7860 O   0  0  0  0  0  0  0  0  0  0  0  0
   11.8870   10.5910   27.9140 C   0  0  0  0  0  0  0  0  0  0  0  0
   11.0150   10.4630   27.2720 H   0  0  0  0  0  0  0  0  0  0  0  0
   12.5530    9.7360   27.7970 H   0  0  0  0  0  0  0  0  0  0  0  0
   11.4650   10.7230   29.3330 C   0  0  0  0  0  0  0  0  0  0  0  0
   12.1400   10.1650   29.9820 H   0  0  0  0  0  0  0  0  0  0  0  0
   10.4480   10.3520   29.4610 H   0  0  0  0  0  0  0  0  0  0  0  0
   12.6100   11.8660   27.5620 C   0  0  0  0  0  0  0  0  0  0  0  0
   12.3840   12.1640   26.5380 H   0  0  0  0  0  0  0  0  0  0  0  0
   13.6870   11.7390   27.6740 H   0  0  0  0  0  0  0  0  0  0  0  0
   11.5940   12.7540   32.0900 O   0  0  0  0  0  0  0  0  0  0  0  0
   12.3000   12.4980   30.9140 C   0  0  0  0  0  0  0  0  0  0  0  0
   11.5290   12.1960   29.6530 C   0  0  3  0  0  0  0  0  0  0  0  0
   10.5240   12.5680   29.8500 H   0  0  0  0  0  0  0  0  0  0  0  0
   12.1130   12.8530   28.5020 N   0  0  0  0  0  0  0  0  0  0  0  0
  1  2  1  0  0  0  0
  1  3  1  0  0  0  0
  1  4  1  0  0  0  0
  1 18  1  0  0  0  0
  5  6  1  0  0  0  0
  5  7  2  0  0  0  0
  5  9  1  0  0  0  0
  7  8  1  0  0  0  0
  7 11  1  0  0  0  0
  9 10  1  0  0  0  0
  9 13  2  0  0  0  0
 11 12  1  0  0  0  0
 11 17  2  0  0  0  0
 13 14  1  0  0  0  0
 13 17  1  0  0  0  0
 15 16  1  0  0  0  0
 15 18  1  0  0  0  0
 15 38  1  0  0  0  0
 17 18  1  0  0  0  0
 18 19  1  0  0  0  0
 20 21  1  0  0  0  0
 20 22  1  0  0  0  0
 20 23  1  0  0  0  0
 20 43  1  0  0  0  0
 24 25  1  0  0  0  0
 24 26  1  0  0  0  0
 24 27  1  0  0  0  0
 24 44  1  0  0  0  0
 28 38  2  0  0  0  0
 29 39  2  0  0  0  0
 30 44  2  0  0  0  0
 31 44  2  0  0  0  0
 32 33  1  0  0  0  0
 32 40  2  0  0  0  0
 32 41  1  0  0  0  0
 34 35  1  0  0  0  0
 34 40  1  0  0  0  0
 34 42  2  0  0  0  0
 36 37  1  0  0  0  0
 36 41  2  0  0  0  0
 36 42  1  0  0  0  0
 38 40  1  0  0  0  0
 39 41  1  0  0  0  0
 39 45  1  0  0  0  0
 42 43  1  0  0  0  0
 43 44  1  0  0  0  0
 45 46  1  0  0  0  0
 45 47  1  0  0  0  0
 47 48  1  0  0  0  0
 47 49  1  0  0  0  0
 47 63  1  0  0  0  0
 49 50  1  0  0  0  0
 49 51  1  0  0  0  0
 49 52  1  0  0  0  0
 52 53  2  0  0  0  0
 52 55  1  0  0  0  0
 53 54  1  0  0  0  0
 53 57  1  0  0  0  0
 55 56  1  0  0  0  0
 55 59  2  0  0  0  0
 57 58  1  0  0  0  0
 57 61  2  0  0  0  0
 59 60  1  0  0  0  0
 59 61  1  0  0  0  0
 61 62  1  0  0  0  0
 63 64  1  0  0  0  0
 63 65  1  0  0  0  0
 63 67  1  0  0  0  0
 65 66  1  0  0  0  0
 67 68  1  0  0  0  0
 67 69  1  0  0  0  0
 67 70  1  0  0  0  0
 70 71  2  0  0  0  0
 70 72  1  0  0  0  0
 72 73  1  0  0  0  0
 72 74  1  0  0  0  0
 74 75  1  0  0  0  0
 74 76  1  0  0  0  0
 74 78  1  0  0  0  0
 76 77  2  0  0  0  0
 76 91  1  0  0  0  0
 78 79  1  0  0  0  0
 78 80  1  0  0  0  0
 78 81  1  0  0  0  0
 81 82  1  0  0  0  0
 81 83  1  0  0  0  0
 81 87  1  0  0  0  0
 83 84  1  0  0  0  0
 83 85  1  0  0  0  0
 83 86  1  0  0  0  0
 87 88  1  0  0  0  0
 87 89  1  0  0  0  0
 87 90  1  0  0  0  0
 91 92  1  0  0  0  0
 91 93  1  0  0  0  0
 93 94  1  0  0  0  0
 93 95  1  0  0  0  0
 93 97  1  0  0  0  0
 95 96  2  0  0  0  0
 95101  1  0  0  0  0
 97 98  1  0  0  0  0
 97 99  1  0  0  0  0
 97100  1  0  0  0  0
101102  1  0  0  0  0
101120  1  0  0  0  0
102103  1  0  0  0  0
102104  1  0  0  0  0
102106  1  0  0  0  0
104105  2  0  0  0  0
104142  1  0  0  0  0
106107  1  0  0  0  0
106108  1  0  0  0  0
106109  1  0  0  0  0
109110  2  0  0  0  0
109112  1  0  0  0  0
110111  1  0  0  0  0
110114  1  0  0  0  0
112113  1  0  0  0  0
112116  2  0  0  0  0
114115  1  0  0  0  0
114118  2  0  0  0  0
116117  1  0  0  0  0
116118  1  0  0  0  0
118119  1  0  0  0  0
120121  1  0  0  0  0
120122  1  0  0  0  0
120123  1  0  0  0  0
124125  1  0  0  0  0
124126  1  0  0  0  0
124127  1  0  0  0  0
124138  1  0  0  0  0
128139  2  0  0  0  0
129130  1  0  0  0  0
129131  1  0  0  0  0
129132  1  0  0  0  0
129135  1  0  0  0  0
132133  1  0  0  0  0
132134  1  0  0  0  0
132140  1  0  0  0  0
135136  1  0  0  0  0
135137  1  0  0  0  0
135142  1  0  0  0  0
138139  1  0  0  0  0
139140  1  0  0  0  0
140141  1  0  0  0  0
140142  1  0  0  0  0
M  END
>  <PARENT_CMPD_ID>
3UQR

>  <STANDARD_TYPE>
IC50

>  <RELATION>
=

>  <STANDARD_VALUE>
0.0572

>  <STANDARD_UNITS>
uM

>  <COMPOUND_KEY>
13

>  <PUBMED_ID>
23181502

>  <JOURNAL>
J.Med.Chem.

>  <YEAR>
2012

>  <VOLUME>
55

>  <FIRST_PAGE>
10749

>  <Company>
SHCNC

>  <Resolution>
3.0599999

>  <idx>
83

>  <Model>
Train

>  <target>
7.2426038

>  <des_pred_mlr>
9.83564

>  <RF_Canvas>
7.4196877

>  <DNN_Canvas>
5.9990215

>  <pred_CoMFA>
6.9510999

>  <pred_COMSIA>
6.4120002

>  <pred_abm5>
6.6631169

>  <pred_ff8>
7.326829

>  <pred_gau6>
6.7482171

>  <CID>
BACE_83

>  <active>
1

>  <des_class_bayes>
1

>  <maacs_class_bayes>
1

>  <radial_class_bayes>
1

>  <dend_class_bayes>
1

>  <molprint_class_bayes>
1

>  <RF_canvas>
1

>  <DNN_canvas>
1

$$$$
3N4L_4789
  MOE2015           3D

 68 71  0  0  1  0  0  0  0  0999 V2000
   25.6960   13.5040   23.2360 C   0  0  0  0  0  0  0  0  0  0  0  0
   24.3460   12.8980   22.9840 C   0  0  0  0  0  0  0  0  0  0  0  0
   24.2650   11.5560   23.0890 N   0  0  0  0  0  0  0  0  0  0  0  0
   23.0620   10.7660   22.8290 C   0  0  3  0  0  0  0  0  0  0  0  0
   22.4460   10.1730   24.1140 C   0  0  3  0  0  0  0  0  0  0  0  0
   21.9900   11.2660   25.0690 C   0  0  0  0  0  0  0  0  0  0  0  0
   21.3470   10.7440   26.2830 N   0  3  0  0  0  0  0  0  0  0  0  0
   20.5290   11.6280   27.1660 C   0  0  0  0  0  0  0  0  0  0  0  0
   19.9050   10.7880   28.2610 C   0  0  0  0  0  0  0  0  0  0  0  0
   19.1540   11.6590   29.2500 C   0  0  0  0  0  0  0  0  0  0  0  0
   20.1280   12.6240   29.9140 C   0  0  0  0  0  0  0  0  0  0  0  0
   20.7710   13.5190   28.8890 C   0  0  0  0  0  0  0  0  0  0  0  0
   21.4480   12.6950   27.8100 C   0  0  0  0  0  0  0  0  0  0  0  0
   19.4240   12.1630   26.2430 C   0  0  0  0  0  0  0  0  0  0  0  0
   18.4190   11.2890   25.7650 C   0  0  0  0  0  0  0  0  0  0  0  0
   17.3890   11.6520   24.8730 C   0  0  0  0  0  0  0  0  0  0  0  0
   17.4360   12.9630   24.4050 C   0  0  0  0  0  0  0  0  0  0  0  0
   18.4330   13.8540   24.8300 C   0  0  0  0  0  0  0  0  0  0  0  0
   19.4290   13.4740   25.7430 C   0  0  0  0  0  0  0  0  0  0  0  0
   16.5010   10.7530   24.4660 N   0  0  0  0  0  0  0  0  0  0  0  0
   15.7700    9.9350   25.3250 N   0  0  0  0  0  0  0  0  0  0  0  0
   15.0760    9.1290   24.4940 C   0  0  0  0  0  0  0  0  0  0  0  0
   15.4160    9.4320   23.1800 C   0  0  0  0  0  0  0  0  0  0  0  0
   16.3360   10.4620   23.1740 C   0  0  0  0  0  0  0  0  0  0  0  0
   23.3890   13.6220   22.7190 O   0  0  0  0  0  0  0  0  0  0  0  0
   23.4240    9.7410   21.7450 C   0  0  0  0  0  0  0  0  0  0  0  0
   24.1410   10.5000   20.6340 C   0  0  0  0  0  0  0  0  0  0  0  0
   25.5090   10.3190   20.4180 C   0  0  0  0  0  0  0  0  0  0  0  0
   26.1500   11.0430   19.4090 C   0  0  0  0  0  0  0  0  0  0  0  0
   25.4730   11.9620   18.6160 C   0  0  0  0  0  0  0  0  0  0  0  0
   24.1310   12.1350   18.8450 C   0  0  0  0  0  0  0  0  0  0  0  0
   23.4530   11.4310   19.8350 C   0  0  0  0  0  0  0  0  0  0  0  0
   27.4480   10.8810   19.1820 F   0  0  0  0  0  0  0  0  0  0  0  0
   23.5140   13.0030   18.0910 F   0  0  0  0  0  0  0  0  0  0  0  0
   21.2970    9.3570   23.8530 O   0  0  0  0  0  0  0  0  0  0  0  0
   26.4140   12.7130   23.4530 H   0  0  0  0  0  0  0  0  0  0  0  0
   25.6360   14.1840   24.0860 H   0  0  0  0  0  0  0  0  0  0  0  0
   26.0180   14.0540   22.3520 H   0  0  0  0  0  0  0  0  0  0  0  0
   25.0980   11.0590   23.3680 H   0  0  0  0  0  0  0  0  0  0  0  0
   22.2530   11.3940   22.4560 H   0  0  0  0  0  0  0  0  0  0  0  0
   23.2410    9.5690   24.5520 H   0  0  0  0  0  0  0  0  0  0  0  0
   21.2780   11.9060   24.5480 H   0  0  0  0  0  0  0  0  0  0  0  0
   22.8600   11.8540   25.3630 H   0  0  0  0  0  0  0  0  0  0  0  0
   22.0860   10.3680   26.8600 H   0  0  0  0  0  0  0  0  0  0  0  0
   20.7390    9.9950   25.9850 H   0  0  0  0  0  0  0  0  0  0  0  0
   20.6910   10.2470   28.7870 H   0  0  0  0  0  0  0  0  0  0  0  0
   19.2110   10.0770   27.8130 H   0  0  0  0  0  0  0  0  0  0  0  0
   18.6900   11.0300   30.0100 H   0  0  0  0  0  0  0  0  0  0  0  0
   18.3830   12.2240   28.7250 H   0  0  0  0  0  0  0  0  0  0  0  0
   20.9020   12.0540   30.4280 H   0  0  0  0  0  0  0  0  0  0  0  0
   19.5880   13.2370   30.6360 H   0  0  0  0  0  0  0  0  0  0  0  0
   21.5140   14.1480   29.3790 H   0  0  0  0  0  0  0  0  0  0  0  0
   20.0070   14.1480   28.4330 H   0  0  0  0  0  0  0  0  0  0  0  0
   21.7910   13.3710   27.0260 H   0  0  0  0  0  0  0  0  0  0  0  0
   22.3050   12.1880   28.2530 H   0  0  0  0  0  0  0  0  0  0  0  0
   18.4430   10.2660   26.1100 H   0  0  0  0  0  0  0  0  0  0  0  0
   16.6900   13.3000   23.7010 H   0  0  0  0  0  0  0  0  0  0  0  0
   18.4340   14.8620   24.4430 H   0  0  0  0  0  0  0  0  0  0  0  0
   20.1860   14.1780   26.0550 H   0  0  0  0  0  0  0  0  0  0  0  0
   14.3700    8.3710   24.8000 H   0  0  0  0  0  0  0  0  0  0  0  0
   15.0230    8.9400   22.3030 H   0  0  0  0  0  0  0  0  0  0  0  0
   16.8110   10.9250   22.3220 H   0  0  0  0  0  0  0  0  0  0  0  0
   22.5200    9.2730   21.3550 H   0  0  0  0  0  0  0  0  0  0  0  0
   24.0800    8.9750   22.1590 H   0  0  0  0  0  0  0  0  0  0  0  0
   26.0680    9.6240   21.0270 H   0  0  0  0  0  0  0  0  0  0  0  0
   25.9850   12.5200   17.8460 H   0  0  0  0  0  0  0  0  0  0  0  0
   22.3980   11.5990   19.9900 H   0  0  0  0  0  0  0  0  0  0  0  0
   20.6210    9.9210   23.4700 H   0  0  0  0  0  0  0  0  0  0  0  0
  1  2  1  0  0  0  0
  1 36  1  0  0  0  0
  1 37  1  0  0  0  0
  1 38  1  0  0  0  0
  2  3  1  0  0  0  0
  2 25  2  0  0  0  0
  3  4  1  0  0  0  0
  3 39  1  0  0  0  0
  4  5  1  0  0  0  0
  4 26  1  0  0  0  0
  4 40  1  0  0  0  0
  5  6  1  0  0  0  0
  5 35  1  0  0  0  0
  5 41  1  0  0  0  0
  6  7  1  0  0  0  0
  6 42  1  0  0  0  0
  6 43  1  0  0  0  0
  7  8  1  0  0  0  0
  7 44  1  0  0  0  0
  7 45  1  0  0  0  0
  8  9  1  0  0  0  0
  8 13  1  0  0  0  0
  8 14  1  0  0  0  0
  9 10  1  0  0  0  0
  9 46  1  0  0  0  0
  9 47  1  0  0  0  0
 10 11  1  0  0  0  0
 10 48  1  0  0  0  0
 10 49  1  0  0  0  0
 11 12  1  0  0  0  0
 11 50  1  0  0  0  0
 11 51  1  0  0  0  0
 12 13  1  0  0  0  0
 12 52  1  0  0  0  0
 12 53  1  0  0  0  0
 13 54  1  0  0  0  0
 13 55  1  0  0  0  0
 14 15  1  0  0  0  0
 14 19  2  0  0  0  0
 15 16  2  0  0  0  0
 15 56  1  0  0  0  0
 16 17  1  0  0  0  0
 16 20  1  0  0  0  0
 17 18  2  0  0  0  0
 17 57  1  0  0  0  0
 18 19  1  0  0  0  0
 18 58  1  0  0  0  0
 19 59  1  0  0  0  0
 20 21  1  0  0  0  0
 20 24  1  0  0  0  0
 21 22  2  0  0  0  0
 22 23  1  0  0  0  0
 22 60  1  0  0  0  0
 23 24  2  0  0  0  0
 23 61  1  0  0  0  0
 24 62  1  0  0  0  0
 26 27  1  0  0  0  0
 26 63  1  0  0  0  0
 26 64  1  0  0  0  0
 27 28  1  0  0  0  0
 27 32  2  0  0  0  0
 28 29  2  0  0  0  0
 28 65  1  0  0  0  0
 29 30  1  0  0  0  0
 29 33  1  0  0  0  0
 30 31  2  0  0  0  0
 30 66  1  0  0  0  0
 31 32  1  0  0  0  0
 31 34  1  0  0  0  0
 32 67  1  0  0  0  0
 35 68  1  0  0  0  0
M  CHG  1   7   1
M  END
>  <PARENT_CMPD_ID>
3N4L

>  <STANDARD_TYPE>
IC50

>  <RELATION>
=

>  <STANDARD_VALUE>
0.059

>  <STANDARD_UNITS>
uM

>  <COMPOUND_KEY>
19

>  <PUBMED_ID>
20634069

>  <JOURNAL>
Bioorg.Med.Chem.Lett.

>  <YEAR>
2010

>  <VOLUME>
20

>  <FIRST_PAGE>
4789

>  <Company>
Elan

>  <Resolution>
2.7

>  <idx>
84

>  <Model>
Train

>  <target>
7.2291479

>  <des_pred_mlr>
6.5765901

>  <RF_Canvas>
7.0328269

>  <DNN_Canvas>
7.0819044

>  <pred_CoMFA>
7.0963001

>  <pred_COMSIA>
7.2621999

>  <pred_abm5>
7.2279944

>  <pred_ff8>
6.7061391

>  <pred_gau6>
7.1787672

>  <CID>
BACE_84

>  <active>
1

>  <des_class_bayes>
1

>  <maacs_class_bayes>
1

>  <radial_class_bayes>
1

>  <dend_class_bayes>
1

>  <molprint_class_bayes>
1

>  <RF_canvas>
1

>  <DNN_canvas>
1

$$$$
3IN3_630
  MOE2015           3D

 43 46  0  0  1  0  0  0  0  0999 V2000
   22.6750   12.0160   25.0630 C   0  0  0  0  0  0  0  0  0  0  0  0
   22.4690   11.2750   23.8360 N   0  0  0  0  0  0  0  0  0  0  0  0
   22.0950   13.0720   22.4660 O   0  0  0  0  0  0  0  0  0  0  0  0
   22.1920   11.8670   22.6460 C   0  0  0  0  0  0  0  0  0  0  0  0
   22.2820    9.5150   22.4530 N   0  0  0  0  0  0  0  0  0  0  0  0
   22.0620   10.7320   21.5940 C   0  0  3  0  0  0  0  0  0  0  0  0
   22.6290    9.0760   24.6900 N   0  0  0  0  0  0  0  0  0  0  0  0
   22.5110    9.9390   23.6550 C   0  0  0  0  0  0  0  0  0  0  0  0
   18.1340   10.2970   19.7450 N   0  0  0  0  0  0  0  0  0  0  0  0
   20.6720   10.6130   20.9460 C   0  0  0  0  0  0  0  0  0  0  0  0
   28.7140    9.9100   21.8280 N   0  0  0  0  0  0  0  0  0  0  0  0
   20.2100    9.3530   20.5220 C   0  0  0  0  0  0  0  0  0  0  0  0
   18.9580    9.2460   19.9390 C   0  0  0  0  0  0  0  0  0  0  0  0
   18.5830   11.5010   20.1560 C   0  0  0  0  0  0  0  0  0  0  0  0
   19.8240   11.7090   20.7510 C   0  0  0  0  0  0  0  0  0  0  0  0
   23.1770   10.9430   20.5470 C   0  0  0  0  0  0  0  0  0  0  0  0
   22.9140   11.1780   19.1860 C   0  0  0  0  0  0  0  0  0  0  0  0
   23.9630   11.3640   18.2820 C   0  0  0  0  0  0  0  0  0  0  0  0
   25.2910   11.3210   18.7120 C   0  0  0  0  0  0  0  0  0  0  0  0
   25.5910   11.0900   20.0610 C   0  0  0  0  0  0  0  0  0  0  0  0
   24.5220   10.9050   20.9540 C   0  0  0  0  0  0  0  0  0  0  0  0
   26.9730   11.0480   20.5590 C   0  0  0  0  0  0  0  0  0  0  0  0
   27.8880   12.0720   20.2730 C   0  0  0  0  0  0  0  0  0  0  0  0
   29.1940   12.0140   20.7550 C   0  0  0  0  0  0  0  0  0  0  0  0
   29.5600   10.9220   21.5240 C   0  0  0  0  0  0  0  0  0  0  0  0
   27.4480    9.9980   21.3430 C   0  0  0  0  0  0  0  0  0  0  0  0
   22.5720   13.0830   24.8650 H   0  0  0  0  0  0  0  0  0  0  0  0
   23.6750   11.8130   25.4470 H   0  0  0  0  0  0  0  0  0  0  0  0
   21.9340   11.7100   25.8010 H   0  0  0  0  0  0  0  0  0  0  0  0
   22.5380    8.0830   24.5320 H   0  0  0  0  0  0  0  0  0  0  0  0
   22.8080    9.4250   25.6210 H   0  0  0  0  0  0  0  0  0  0  0  0
   20.8270    8.4760   20.6500 H   0  0  0  0  0  0  0  0  0  0  0  0
   18.6230    8.2690   19.6230 H   0  0  0  0  0  0  0  0  0  0  0  0
   17.9390   12.3570   20.0150 H   0  0  0  0  0  0  0  0  0  0  0  0
   20.1270   12.6990   21.0570 H   0  0  0  0  0  0  0  0  0  0  0  0
   21.8930   11.2150   18.8360 H   0  0  0  0  0  0  0  0  0  0  0  0
   23.7450   11.5430   17.2400 H   0  0  0  0  0  0  0  0  0  0  0  0
   26.0910   11.4670   18.0010 H   0  0  0  0  0  0  0  0  0  0  0  0
   24.7430   10.7260   21.9960 H   0  0  0  0  0  0  0  0  0  0  0  0
   27.5770   12.9140   19.6730 H   0  0  0  0  0  0  0  0  0  0  0  0
   29.9020   12.7990   20.5350 H   0  0  0  0  0  0  0  0  0  0  0  0
   30.5710   10.8750   21.9000 H   0  0  0  0  0  0  0  0  0  0  0  0
   26.7620    9.1990   21.5820 H   0  0  0  0  0  0  0  0  0  0  0  0
  1  2  1  0  0  0  0
  1 27  1  0  0  0  0
  1 28  1  0  0  0  0
  1 29  1  0  0  0  0
  2  4  1  0  0  0  0
  2  8  1  0  0  0  0
  3  4  2  0  0  0  0
  4  6  1  0  0  0  0
  5  6  1  0  0  0  0
  5  8  2  0  0  0  0
  6 10  1  0  0  0  0
  6 16  1  0  0  0  0
  7  8  1  0  0  0  0
  7 30  1  0  0  0  0
  7 31  1  0  0  0  0
  9 13  2  0  0  0  0
  9 14  1  0  0  0  0
 10 12  2  0  0  0  0
 10 15  1  0  0  0  0
 11 25  2  0  0  0  0
 11 26  1  0  0  0  0
 12 13  1  0  0  0  0
 12 32  1  0  0  0  0
 13 33  1  0  0  0  0
 14 15  2  0  0  0  0
 14 34  1  0  0  0  0
 15 35  1  0  0  0  0
 16 17  1  0  0  0  0
 16 21  2  0  0  0  0
 17 18  2  0  0  0  0
 17 36  1  0  0  0  0
 18 19  1  0  0  0  0
 18 37  1  0  0  0  0
 19 20  2  0  0  0  0
 19 38  1  0  0  0  0
 20 21  1  0  0  0  0
 20 22  1  0  0  0  0
 21 39  1  0  0  0  0
 22 23  1  0  0  0  0
 22 26  2  0  0  0  0
 23 24  2  0  0  0  0
 23 40  1  0  0  0  0
 24 25  1  0  0  0  0
 24 41  1  0  0  0  0
 25 42  1  0  0  0  0
 26 43  1  0  0  0  0
M  END
>  <PARENT_CMPD_ID>
3IN3

>  <STANDARD_TYPE>
IC50

>  <RELATION>
=

>  <STANDARD_VALUE>
0.059999999

>  <STANDARD_UNITS>
uM

>  <COMPOUND_KEY>
30

>  <PUBMED_ID>
20045648

>  <JOURNAL>
Bioorg.Med.Chem.

>  <YEAR>
2010

>  <VOLUME>
18

>  <FIRST_PAGE>
630

>  <Company>
Wyeth

>  <Resolution>
2

>  <idx>
85

>  <Model>
Train

>  <target>
7.221849

>  <des_pred_mlr>
5.7472601

>  <RF_Canvas>
6.997478

>  <DNN_Canvas>
6.9386325

>  <pred_CoMFA>
7.1499

>  <pred_COMSIA>
6.3278999

>  <pred_abm5>
7.3389144

>  <pred_ff8>
5.9090009

>  <pred_gau6>
7.0193958

>  <CID>
BACE_85

>  <active>
1

>  <des_class_bayes>
0

>  <maacs_class_bayes>
0

>  <radial_class_bayes>
1

>  <dend_class_bayes>
1

>  <molprint_class_bayes>
1

>  <RF_canvas>
1

>  <DNN_canvas>
1

$$$$
3S7M_5164
  MOE2015           3D

 41 44  0  0  1  0  0  0  0  0999 V2000
   22.9580   11.7900   25.1020 C   0  0  0  0  0  0  0  0  0  0  0  0
   22.9060   12.8600   24.8980 H   0  0  0  0  0  0  0  0  0  0  0  0
   23.9590   11.5340   25.4490 H   0  0  0  0  0  0  0  0  0  0  0  0
   22.2300   11.5310   25.8710 H   0  0  0  0  0  0  0  0  0  0  0  0
   22.6660   11.0590   23.9000 N   0  0  0  0  0  0  0  0  0  0  0  0
   22.4010   12.8770   22.5250 O   0  0  0  0  0  0  0  0  0  0  0  0
   18.5230   11.2740   20.2000 S   0  0  0  0  0  0  0  0  0  0  0  0
   22.4100   11.6630   22.7270 C   0  0  0  0  0  0  0  0  0  0  0  0
   22.4080    9.2830   22.5610 N   0  0  0  0  0  0  0  0  0  0  0  0
   22.1990   10.5170   21.7400 C   0  0  3  0  0  0  0  0  0  0  0  0
   22.7310    8.9340   24.8050 N   0  0  0  0  0  0  0  0  0  0  0  0
   22.6320    7.9350   24.6990 H   0  0  0  0  0  0  0  0  0  0  0  0
   22.9070    9.3300   25.7170 H   0  0  0  0  0  0  0  0  0  0  0  0
   22.6300    9.7310   23.7410 C   0  0  0  0  0  0  0  0  0  0  0  0
   28.6440    9.5760   22.0560 N   0  0  0  0  0  0  0  0  0  0  0  0
   23.2120   10.7130   20.6190 C   0  0  0  0  0  0  0  0  0  0  0  0
   22.9090   10.9710   19.2790 C   0  0  0  0  0  0  0  0  0  0  0  0
   21.8810   11.0440   18.9550 H   0  0  0  0  0  0  0  0  0  0  0  0
   23.9540   11.1330   18.3640 C   0  0  0  0  0  0  0  0  0  0  0  0
   23.7190   11.3230   17.3270 H   0  0  0  0  0  0  0  0  0  0  0  0
   25.2890   11.0560   18.7510 C   0  0  0  0  0  0  0  0  0  0  0  0
   26.0730   11.1990   18.0230 H   0  0  0  0  0  0  0  0  0  0  0  0
   25.6130   10.7910   20.0930 C   0  0  0  0  0  0  0  0  0  0  0  0
   24.5450   10.6380   20.9770 C   0  0  0  0  0  0  0  0  0  0  0  0
   24.7760   10.4470   22.0150 H   0  0  0  0  0  0  0  0  0  0  0  0
   26.9950   10.7050   20.6250 C   0  0  0  0  0  0  0  0  0  0  0  0
   27.9930   11.6230   20.2520 C   0  0  0  0  0  0  0  0  0  0  0  0
   27.7620   12.4190   19.5590 H   0  0  0  0  0  0  0  0  0  0  0  0
   29.2790   11.5070   20.7750 C   0  0  0  0  0  0  0  0  0  0  0  0
   30.0500   12.2080   20.4910 H   0  0  0  0  0  0  0  0  0  0  0  0
   29.5600   10.4740   21.6710 C   0  0  0  0  0  0  0  0  0  0  0  0
   30.5600   10.3960   22.0710 H   0  0  0  0  0  0  0  0  0  0  0  0
   27.3980    9.7170   21.5280 C   0  0  0  0  0  0  0  0  0  0  0  0
   26.6510    8.9990   21.8350 H   0  0  0  0  0  0  0  0  0  0  0  0
   20.8240   10.5150   21.1350 C   0  0  0  0  0  0  0  0  0  0  0  0
   20.1420    9.3330   20.7260 C   0  0  0  0  0  0  0  0  0  0  0  0
   20.5520    8.3380   20.8130 H   0  0  0  0  0  0  0  0  0  0  0  0
   18.9000    9.6110   20.2080 C   0  0  0  0  0  0  0  0  0  0  0  0
   18.2270    8.8500   19.8410 H   0  0  0  0  0  0  0  0  0  0  0  0
   20.0450   11.6280   20.9050 C   0  0  0  0  0  0  0  0  0  0  0  0
   20.3640   12.6310   21.1470 H   0  0  0  0  0  0  0  0  0  0  0  0
  1  2  1  0  0  0  0
  1  3  1  0  0  0  0
  1  4  1  0  0  0  0
  1  5  1  0  0  0  0
  5  8  1  0  0  0  0
  5 14  1  0  0  0  0
  6  8  2  0  0  0  0
  7 38  1  0  0  0  0
  7 40  1  0  0  0  0
  8 10  1  0  0  0  0
  9 10  1  0  0  0  0
  9 14  2  0  0  0  0
 10 16  1  0  0  0  0
 10 35  1  0  0  0  0
 11 12  1  0  0  0  0
 11 13  1  0  0  0  0
 11 14  1  0  0  0  0
 15 31  2  0  0  0  0
 15 33  1  0  0  0  0
 16 17  1  0  0  0  0
 16 24  2  0  0  0  0
 17 18  1  0  0  0  0
 17 19  2  0  0  0  0
 19 20  1  0  0  0  0
 19 21  1  0  0  0  0
 21 22  1  0  0  0  0
 21 23  2  0  0  0  0
 23 24  1  0  0  0  0
 23 26  1  0  0  0  0
 24 25  1  0  0  0  0
 26 27  1  0  0  0  0
 26 33  2  0  0  0  0
 27 28  1  0  0  0  0
 27 29  2  0  0  0  0
 29 30  1  0  0  0  0
 29 31  1  0  0  0  0
 31 32  1  0  0  0  0
 33 34  1  0  0  0  0
 35 36  1  0  0  0  0
 35 40  2  0  0  0  0
 36 37  1  0  0  0  0
 36 38  2  0  0  0  0
 38 39  1  0  0  0  0
 40 41  1  0  0  0  0
M  END
>  <PARENT_CMPD_ID>
3S7M

>  <STANDARD_TYPE>
IC50

>  <RELATION>
=

>  <STANDARD_VALUE>
0.059999999

>  <STANDARD_UNITS>
uM

>  <COMPOUND_KEY>
57

>  <PUBMED_ID>
21835615

>  <JOURNAL>
Bioorg.Med.Chem.Lett.

>  <YEAR>
2011

>  <VOLUME>
21

>  <FIRST_PAGE>
5164

>  <Company>
Pfizer

>  <Resolution>
2.2

>  <idx>
86

>  <Model>
Train

>  <target>
7.221849

>  <des_pred_mlr>
5.6929898

>  <RF_Canvas>
6.6729698

>  <DNN_Canvas>
6.8085299

>  <pred_CoMFA>
6.5335999

>  <pred_COMSIA>
6.1184001

>  <pred_abm5>
6.8120661

>  <pred_ff8>
5.8164454

>  <pred_gau6>
6.6265569

>  <CID>
BACE_86

>  <active>
1

>  <des_class_bayes>
0

>  <maacs_class_bayes>
0

>  <radial_class_bayes>
1

>  <dend_class_bayes>
1

>  <molprint_class_bayes>
1

>  <RF_canvas>
1

>  <DNN_canvas>
1

$$$$
2P8H_995
  MOE2015           3D

 87 90  0  0  1  0  0  0  0  0999 V2000
   29.8220    9.2320   23.2180 C   0  0  0  0  0  0  0  0  0  0  0  0
   30.4310   10.1950   22.2860 C   0  0  0  0  0  0  0  0  0  0  0  0
   31.8580   10.4550   22.1910 C   0  0  0  0  0  0  0  0  0  0  0  0
   32.7330    9.6990   23.0550 C   0  0  0  0  0  0  0  0  0  0  0  0
   32.1180    8.7240   23.9200 C   0  0  0  0  0  0  0  0  0  0  0  0
   30.6970    8.4540   24.0450 C   0  0  0  0  0  0  0  0  0  0  0  0
   29.6170   10.9830   21.3270 C   0  0  3  0  0  0  0  0  0  0  0  0
   28.6090   11.8340   21.9470 N   0  0  0  0  0  0  0  0  0  0  0  0
   28.6950   13.1920   22.1650 C   0  0  0  0  0  0  0  0  0  0  0  0
   27.6030   13.7940   22.9630 C   0  0  0  0  0  0  0  0  0  0  0  0
   26.2620   13.2900   22.8460 C   0  0  0  0  0  0  0  0  0  0  0  0
   25.2320   13.7320   23.7180 C   0  0  0  0  0  0  0  0  0  0  0  0
   25.5070   14.7560   24.6970 C   0  0  0  0  0  0  0  0  0  0  0  0
   26.8120   15.3560   24.8110 C   0  0  0  0  0  0  0  0  0  0  0  0
   27.8500   14.8470   23.9300 C   0  0  0  0  0  0  0  0  0  0  0  0
   27.0020   16.3760   25.7620 N   0  0  0  0  0  0  0  0  0  0  0  0
   28.4040   16.5540   26.6270 S   0  0  0  0  0  0  0  0  0  0  0  0
   29.5870   17.5770   25.7660 C   0  0  0  0  0  0  0  0  0  0  0  0
   26.0270   17.5120   25.8410 C   0  0  0  0  0  0  0  0  0  0  0  0
   23.8780   13.1900   23.6120 C   0  0  0  0  0  0  0  0  0  0  0  0
   29.6390   13.8420   21.7090 O   0  0  0  0  0  0  0  0  0  0  0  0
   29.0200   15.2590   26.6800 O   0  0  0  0  0  0  0  0  0  0  0  0
   28.0960   17.1550   27.8960 O   0  0  0  0  0  0  0  0  0  0  0  0
   22.8960   13.9310   23.5170 O   0  0  0  0  0  0  0  0  0  0  0  0
   28.9290   10.0330   20.3330 C   0  0  0  0  0  0  0  0  0  0  0  0
   23.7710   11.8270   23.6240 N   0  0  0  0  0  0  0  0  0  0  0  0
   22.5310   11.1550   23.1610 C   0  0  3  0  0  0  0  0  0  0  0  0
   22.8980   10.2500   21.9830 C   0  0  0  0  0  0  0  0  0  0  0  0
   23.6460   10.9140   20.8140 C   0  0  0  0  0  0  0  0  0  0  0  0
   23.3360   12.2620   20.2930 C   0  0  0  0  0  0  0  0  0  0  0  0
   24.1130   12.7650   19.1820 C   0  0  0  0  0  0  0  0  0  0  0  0
   25.1750   11.9370   18.6280 C   0  0  0  0  0  0  0  0  0  0  0  0
   25.4720   10.5940   19.1090 C   0  0  0  0  0  0  0  0  0  0  0  0
   24.7000   10.0940   20.2370 C   0  0  0  0  0  0  0  0  0  0  0  0
   21.9220   10.3120   24.3180 C   0  0  3  0  0  0  0  0  0  0  0  0
   20.8630    9.6020   23.9180 O   0  0  0  0  0  0  0  0  0  0  0  0
   32.9340    7.9850   24.6850 F   0  0  0  0  0  0  0  0  0  0  0  0
   20.1410   11.5210   27.2850 C   0  0  0  0  0  0  0  0  0  0  0  0
   20.9410   10.4980   26.6130 N   0  3  0  0  0  0  0  0  0  0  0  0
   21.5120   11.2590   25.4940 C   0  0  3  0  0  0  0  0  0  0  0  0
   20.3680   12.1820   25.0820 C   0  0  0  0  0  0  0  0  0  0  0  0
   19.6170   12.3400   26.1730 N   0  0  0  0  0  0  0  0  0  0  0  0
   20.1120   12.7230   24.0090 O   0  0  0  0  0  0  0  0  0  0  0  0
   18.4070   13.1510   26.3120 C   0  0  0  0  0  0  0  0  0  0  0  0
   21.0110   12.3930   28.2230 C   0  0  0  0  0  0  0  0  0  0  0  0
   19.0400   10.8260   28.0750 C   0  0  0  0  0  0  0  0  0  0  0  0
   28.7500    9.1150   23.2770 H   0  0  0  0  0  0  0  0  0  0  0  0
   32.2490   11.1870   21.5000 H   0  0  0  0  0  0  0  0  0  0  0  0
   33.8010    9.8570   23.0530 H   0  0  0  0  0  0  0  0  0  0  0  0
   30.3190    7.7060   24.7260 H   0  0  0  0  0  0  0  0  0  0  0  0
   30.3160   11.6510   20.8240 H   0  0  0  0  0  0  0  0  0  0  0  0
   27.7580   11.3810   22.2480 H   0  0  0  0  0  0  0  0  0  0  0  0
   26.0340   12.5620   22.0810 H   0  0  0  0  0  0  0  0  0  0  0  0
   24.7170   15.0800   25.3590 H   0  0  0  0  0  0  0  0  0  0  0  0
   28.8420   15.2680   23.9980 H   0  0  0  0  0  0  0  0  0  0  0  0
   29.8240   17.1260   24.8030 H   0  0  0  0  0  0  0  0  0  0  0  0
   30.4960   17.6610   26.3620 H   0  0  0  0  0  0  0  0  0  0  0  0
   29.1630   18.5690   25.6080 H   0  0  0  0  0  0  0  0  0  0  0  0
   25.1500   17.2810   25.2360 H   0  0  0  0  0  0  0  0  0  0  0  0
   26.4980   18.4210   25.4670 H   0  0  0  0  0  0  0  0  0  0  0  0
   25.7240   17.6590   26.8780 H   0  0  0  0  0  0  0  0  0  0  0  0
   28.2400    9.3820   20.8710 H   0  0  0  0  0  0  0  0  0  0  0  0
   29.6820    9.4280   19.8280 H   0  0  0  0  0  0  0  0  0  0  0  0
   28.3780   10.6160   19.5950 H   0  0  0  0  0  0  0  0  0  0  0  0
   24.5470   11.2700   23.9520 H   0  0  0  0  0  0  0  0  0  0  0  0
   21.7900   11.8920   22.8510 H   0  0  0  0  0  0  0  0  0  0  0  0
   21.9730    9.8290   21.5880 H   0  0  0  0  0  0  0  0  0  0  0  0
   23.5280    9.4470   22.3660 H   0  0  0  0  0  0  0  0  0  0  0  0
   22.5480   12.8570   20.7310 H   0  0  0  0  0  0  0  0  0  0  0  0
   23.9080   13.7420   18.7690 H   0  0  0  0  0  0  0  0  0  0  0  0
   25.7710   12.3380   17.8220 H   0  0  0  0  0  0  0  0  0  0  0  0
   26.2380    9.9910   18.6450 H   0  0  0  0  0  0  0  0  0  0  0  0
   24.9090    9.1160   20.6450 H   0  0  0  0  0  0  0  0  0  0  0  0
   22.6820    9.6060   24.6520 H   0  0  0  0  0  0  0  0  0  0  0  0
   20.1920   10.2220   23.6230 H   0  0  0  0  0  0  0  0  0  0  0  0
   20.3650    9.7360   26.2850 H   0  0  0  0  0  0  0  0  0  0  0  0
   21.6630   10.1370   27.2200 H   0  0  0  0  0  0  0  0  0  0  0  0
   22.4210   11.7970   25.7630 H   0  0  0  0  0  0  0  0  0  0  0  0
   18.0290   13.0690   27.3310 H   0  0  0  0  0  0  0  0  0  0  0  0
   17.6490   12.7950   25.6140 H   0  0  0  0  0  0  0  0  0  0  0  0
   18.6410   14.1930   26.0940 H   0  0  0  0  0  0  0  0  0  0  0  0
   21.7930   12.8830   27.6420 H   0  0  0  0  0  0  0  0  0  0  0  0
   21.4660   11.7620   28.9870 H   0  0  0  0  0  0  0  0  0  0  0  0
   20.3860   13.1480   28.7000 H   0  0  0  0  0  0  0  0  0  0  0  0
   18.4380   10.2170   27.4010 H   0  0  0  0  0  0  0  0  0  0  0  0
   18.4070   11.5740   28.5520 H   0  0  0  0  0  0  0  0  0  0  0  0
   19.4870   10.1890   28.8380 H   0  0  0  0  0  0  0  0  0  0  0  0
  1  2  1  0  0  0  0
  1  6  2  0  0  0  0
  1 47  1  0  0  0  0
  2  3  2  0  0  0  0
  2  7  1  0  0  0  0
  3  4  1  0  0  0  0
  3 48  1  0  0  0  0
  4  5  2  0  0  0  0
  4 49  1  0  0  0  0
  5  6  1  0  0  0  0
  5 37  1  0  0  0  0
  6 50  1  0  0  0  0
  7  8  1  0  0  0  0
  7 25  1  0  0  0  0
  7 51  1  0  0  0  0
  8  9  1  0  0  0  0
  8 52  1  0  0  0  0
  9 10  1  0  0  0  0
  9 21  2  0  0  0  0
 10 11  1  0  0  0  0
 10 15  2  0  0  0  0
 11 12  2  0  0  0  0
 11 53  1  0  0  0  0
 12 13  1  0  0  0  0
 12 20  1  0  0  0  0
 13 14  2  0  0  0  0
 13 54  1  0  0  0  0
 14 15  1  0  0  0  0
 14 16  1  0  0  0  0
 15 55  1  0  0  0  0
 16 17  1  0  0  0  0
 16 19  1  0  0  0  0
 17 18  1  0  0  0  0
 17 22  2  0  0  0  0
 17 23  2  0  0  0  0
 18 56  1  0  0  0  0
 18 57  1  0  0  0  0
 18 58  1  0  0  0  0
 19 59  1  0  0  0  0
 19 60  1  0  0  0  0
 19 61  1  0  0  0  0
 20 24  2  0  0  0  0
 20 26  1  0  0  0  0
 25 62  1  0  0  0  0
 25 63  1  0  0  0  0
 25 64  1  0  0  0  0
 26 27  1  0  0  0  0
 26 65  1  0  0  0  0
 27 28  1  0  0  0  0
 27 35  1  0  0  0  0
 27 66  1  0  0  0  0
 28 29  1  0  0  0  0
 28 67  1  0  0  0  0
 28 68  1  0  0  0  0
 29 30  1  0  0  0  0
 29 34  2  0  0  0  0
 30 31  2  0  0  0  0
 30 69  1  0  0  0  0
 31 32  1  0  0  0  0
 31 70  1  0  0  0  0
 32 33  2  0  0  0  0
 32 71  1  0  0  0  0
 33 34  1  0  0  0  0
 33 72  1  0  0  0  0
 34 73  1  0  0  0  0
 35 36  1  0  0  0  0
 35 40  1  0  0  0  0
 35 74  1  0  0  0  0
 36 75  1  0  0  0  0
 38 39  1  0  0  0  0
 38 42  1  0  0  0  0
 38 45  1  0  0  0  0
 38 46  1  0  0  0  0
 39 40  1  0  0  0  0
 39 76  1  0  0  0  0
 39 77  1  0  0  0  0
 40 41  1  0  0  0  0
 40 78  1  0  0  0  0
 41 42  1  0  0  0  0
 41 43  2  0  0  0  0
 42 44  1  0  0  0  0
 44 79  1  0  0  0  0
 44 80  1  0  0  0  0
 44 81  1  0  0  0  0
 45 82  1  0  0  0  0
 45 83  1  0  0  0  0
 45 84  1  0  0  0  0
 46 85  1  0  0  0  0
 46 86  1  0  0  0  0
 46 87  1  0  0  0  0
M  CHG  1  39   1
M  END
>  <PARENT_CMPD_ID>
2P8H

>  <STANDARD_TYPE>
IC50

>  <RELATION>
=

>  <STANDARD_VALUE>
0.071000002

>  <STANDARD_UNITS>
uM

>  <COMPOUND_KEY>
13a

>  <PUBMED_ID>
17458843

>  <JOURNAL>
Chemmedchem

>  <YEAR>
2007

>  <VOLUME>
2

>  <FIRST_PAGE>
995

>  <Company>
Merck

>  <Resolution>
1.8

>  <idx>
87

>  <Model>
Train

>  <target>
7.1487417

>  <des_pred_mlr>
7.3113098

>  <RF_Canvas>
7.4929399

>  <DNN_Canvas>
7.5918803

>  <pred_CoMFA>
7.7350998

>  <pred_COMSIA>
7.7487998

>  <pred_abm5>
8.0010986

>  <pred_ff8>
9.6753759

>  <pred_gau6>
7.6825118

>  <CID>
BACE_87

>  <active>
1

>  <des_class_bayes>
1

>  <maacs_class_bayes>
1

>  <radial_class_bayes>
1

>  <dend_class_bayes>
1

>  <molprint_class_bayes>
1

>  <RF_canvas>
1

>  <DNN_canvas>
1

$$$$
4FGX_10749
  MOE2015           3D

138139  0  0  1  0  0  0  0  0999 V2000
   30.7720   14.6770   21.9480 C   0  0  0  0  0  0  0  0  0  0  0  0
   30.0450   15.4190   21.2910 O   0  0  0  0  0  0  0  0  0  0  0  0
   33.0700   15.3530   21.2000 C   0  0  0  0  0  0  0  0  0  0  0  0
   32.8020   14.2600   23.2330 O   0  0  0  0  0  0  0  0  0  0  0  0
   32.1590   15.1430   22.3890 C   0  0  3  0  0  0  0  0  0  0  0  0
   30.2990   13.3400   22.3010 N   0  0  0  0  0  0  0  0  0  0  0  0
   28.9870   12.9520   21.8700 C   0  0  3  0  0  0  0  0  0  0  0  0
   28.0090   13.2030   23.0030 C   0  0  0  0  0  0  0  0  0  0  0  0
   28.3610   13.0830   24.1710 O   0  0  0  0  0  0  0  0  0  0  0  0
   28.8560   11.4830   21.4220 C   0  0  0  0  0  0  0  0  0  0  0  0
   29.3630   11.3250   20.0040 C   0  0  0  0  0  0  0  0  0  0  0  0
   29.5870   10.5460   22.3530 C   0  0  0  0  0  0  0  0  0  0  0  0
   26.2020   13.7750   21.3160 C   0  0  0  0  0  0  0  0  0  0  0  0
   25.0380   17.6590   26.0470 N   0  0  0  0  0  0  0  0  0  0  0  0
   27.1170   17.0740   26.9690 O   0  0  0  0  0  0  0  0  0  0  0  0
   23.3740   13.9190   23.1440 O   0  0  0  0  0  0  0  0  0  0  0  0
   26.0560   15.2920   25.7370 C   0  0  0  0  0  0  0  0  0  0  0  0
   25.6600   15.3000   24.2580 C   0  0  0  0  0  0  0  0  0  0  0  0
   26.1400   16.7210   26.3060 C   0  0  0  0  0  0  0  0  0  0  0  0
   24.3620   13.2480   23.4240 C   0  0  0  0  0  0  0  0  0  0  0  0
   25.7210   13.8450   23.7970 C   0  0  3  0  0  0  0  0  0  0  0  0
   26.6480   13.6090   22.6880 N   0  0  0  0  0  0  0  0  0  0  0  0
   24.3380   11.7770   23.3870 N   0  0  0  0  0  0  0  0  0  0  0  0
   23.1060   11.0530   23.0450 C   0  0  3  0  0  0  0  0  0  0  0  0
   23.3910    9.9690   22.0630 C   0  0  0  0  0  0  0  0  0  0  0  0
   24.0310   10.5730   20.8210 C   0  0  0  0  0  0  0  0  0  0  0  0
   23.3980   11.7270   20.1430 C   0  0  0  0  0  0  0  0  0  0  0  0
   25.3050    9.9930   20.2740 C   0  0  0  0  0  0  0  0  0  0  0  0
   24.0310   12.3160   18.9080 C   0  0  0  0  0  0  0  0  0  0  0  0
   25.9350   10.5780   19.0400 C   0  0  0  0  0  0  0  0  0  0  0  0
   25.2980   11.7340   18.3630 C   0  0  0  0  0  0  0  0  0  0  0  0
   22.6020   10.4520   24.3380 C   0  0  3  0  0  0  0  0  0  0  0  0
   23.4990    9.5520   24.9280 O   0  0  0  0  0  0  0  0  0  0  0  0
   21.9240   11.4780   25.2530 C   0  0  0  0  0  0  0  0  0  0  0  0
   20.5240   11.8460   24.7100 C   0  0  0  0  0  0  0  0  0  0  0  0
   20.3630   12.7900   23.9580 O   0  0  0  0  0  0  0  0  0  0  0  0
   19.3620   11.0110   25.0910 N   0  0  0  0  0  0  0  0  0  0  0  0
   18.0370   11.3330   24.5870 C   0  0  3  0  0  0  0  0  0  0  0  0
   17.5970   12.6500   25.2200 C   0  0  0  0  0  0  0  0  0  0  0  0
   17.8890   12.9220   26.3800 O   0  0  0  0  0  0  0  0  0  0  0  0
   17.1400   10.1660   24.8860 C   0  0  0  0  0  0  0  0  0  0  0  0
   15.7310   10.3530   24.3820 C   0  0  0  0  0  0  0  0  0  0  0  0
   15.6750   10.1530   22.9020 C   0  0  0  0  0  0  0  0  0  0  0  0
   14.8630    9.3000   25.0260 C   0  0  0  0  0  0  0  0  0  0  0  0
   16.8280   13.5990   24.4260 N   0  0  0  0  0  0  0  0  0  0  0  0
   16.4080   14.8480   25.0740 C   0  0  3  0  0  0  0  0  0  0  0  0
   15.5260   14.4540   26.2380 C   0  0  0  0  0  0  0  0  0  0  0  0
   14.7600   13.4970   26.1240 O   0  0  0  0  0  0  0  0  0  0  0  0
   15.6300   15.7120   24.1280 C   0  0  0  0  0  0  0  0  0  0  0  0
   15.5520   15.1700   27.5440 N   0  0  0  0  0  0  0  0  0  0  0  0
   14.6400   14.6820   28.5660 C   0  0  3  0  0  0  0  0  0  0  0  0
   15.3820   14.4760   29.8260 C   0  0  0  0  0  0  0  0  0  0  0  0
   14.9760   15.0250   30.8830 O   0  0  0  0  0  0  0  0  0  0  0  0
   16.4120   13.7340   29.8350 O   0  5  0  0  0  0  0  0  0  0  0  0
   13.4610   15.6260   28.6870 C   0  0  0  0  0  0  0  0  0  0  0  0
   12.9600   15.8520   27.2450 C   0  0  0  0  0  0  0  0  0  0  0  0
   12.0850   14.8400   26.6060 C   0  0  0  0  0  0  0  0  0  0  0  0
   13.3840   17.0870   26.4680 C   0  0  0  0  0  0  0  0  0  0  0  0
   11.6040   15.0350   25.1910 C   0  0  0  0  0  0  0  0  0  0  0  0
   12.8980   17.2840   25.0610 C   0  0  0  0  0  0  0  0  0  0  0  0
   12.0130   16.2680   24.4210 C   0  0  0  0  0  0  0  0  0  0  0  0
   16.4250   16.3190   27.7850 C   0  0  0  0  0  0  0  0  0  0  0  0
   32.6020   16.0470   20.5020 H   0  0  0  0  0  0  0  0  0  0  0  0
   33.2440   14.3990   20.7020 H   0  0  0  0  0  0  0  0  0  0  0  0
   34.0210   15.7640   21.5390 H   0  0  0  0  0  0  0  0  0  0  0  0
   32.2330   14.1180   23.9930 H   0  0  0  0  0  0  0  0  0  0  0  0
   31.9740   16.0740   22.9240 H   0  0  0  0  0  0  0  0  0  0  0  0
   30.8790   12.7070   22.8330 H   0  0  0  0  0  0  0  0  0  0  0  0
   28.7710   13.5550   20.9880 H   0  0  0  0  0  0  0  0  0  0  0  0
   27.8000   11.2170   21.4560 H   0  0  0  0  0  0  0  0  0  0  0  0
   30.4190   11.5900   19.9640 H   0  0  0  0  0  0  0  0  0  0  0  0
   28.7980   11.9810   19.3410 H   0  0  0  0  0  0  0  0  0  0  0  0
   29.2360   10.2900   19.6860 H   0  0  0  0  0  0  0  0  0  0  0  0
   30.6510   10.7830   22.3450 H   0  0  0  0  0  0  0  0  0  0  0  0
   29.4410    9.5180   22.0220 H   0  0  0  0  0  0  0  0  0  0  0  0
   29.1960   10.6610   23.3640 H   0  0  0  0  0  0  0  0  0  0  0  0
   27.0260   13.5570   20.6370 H   0  0  0  0  0  0  0  0  0  0  0  0
   25.8680   14.8010   21.1640 H   0  0  0  0  0  0  0  0  0  0  0  0
   25.3770   13.0910   21.1170 H   0  0  0  0  0  0  0  0  0  0  0  0
   25.0790   18.5990   26.4130 H   0  0  0  0  0  0  0  0  0  0  0  0
   24.2400   17.3630   25.5030 H   0  0  0  0  0  0  0  0  0  0  0  0
   27.0290   14.8120   25.8410 H   0  0  0  0  0  0  0  0  0  0  0  0
   25.3110   14.7300   26.3000 H   0  0  0  0  0  0  0  0  0  0  0  0
   26.3570   15.9090   23.6830 H   0  0  0  0  0  0  0  0  0  0  0  0
   24.6500   15.6930   24.1390 H   0  0  0  0  0  0  0  0  0  0  0  0
   26.0950   13.3350   24.6850 H   0  0  0  0  0  0  0  0  0  0  0  0
   25.1790   11.2590   23.5990 H   0  0  0  0  0  0  0  0  0  0  0  0
   22.3720   11.7200   22.5930 H   0  0  0  0  0  0  0  0  0  0  0  0
   22.4600    9.4720   21.7880 H   0  0  0  0  0  0  0  0  0  0  0  0
   24.0720    9.2440   22.5080 H   0  0  0  0  0  0  0  0  0  0  0  0
   24.6070   11.2540   21.4470 H   0  0  0  0  0  0  0  0  0  0  0  0
   23.3370   12.5290   20.8780 H   0  0  0  0  0  0  0  0  0  0  0  0
   22.3920   11.4140   19.8620 H   0  0  0  0  0  0  0  0  0  0  0  0
   25.1040    8.9440   20.0560 H   0  0  0  0  0  0  0  0  0  0  0  0
   26.0480   10.0630   21.0690 H   0  0  0  0  0  0  0  0  0  0  0  0
   24.2360   13.3630   19.1290 H   0  0  0  0  0  0  0  0  0  0  0  0
   23.2880   12.2510   18.1130 H   0  0  0  0  0  0  0  0  0  0  0  0
   25.9940    9.7750   18.3050 H   0  0  0  0  0  0  0  0  0  0  0  0
   26.9420   10.8910   19.3180 H   0  0  0  0  0  0  0  0  0  0  0  0
   26.0340   12.5380   18.3530 H   0  0  0  0  0  0  0  0  0  0  0  0
   25.0860   11.4220   17.3400 H   0  0  0  0  0  0  0  0  0  0  0  0
   21.7740    9.7900   24.0840 H   0  0  0  0  0  0  0  0  0  0  0  0
   24.2770   10.0480   25.1910 H   0  0  0  0  0  0  0  0  0  0  0  0
   22.5380   12.3770   25.3010 H   0  0  0  0  0  0  0  0  0  0  0  0
   21.8210   11.0550   26.2520 H   0  0  0  0  0  0  0  0  0  0  0  0
   19.4900   10.2170   25.7020 H   0  0  0  0  0  0  0  0  0  0  0  0
   18.0080   11.4850   23.5080 H   0  0  0  0  0  0  0  0  0  0  0  0
   17.1050   10.0240   25.9660 H   0  0  0  0  0  0  0  0  0  0  0  0
   17.5610    9.2770   24.4160 H   0  0  0  0  0  0  0  0  0  0  0  0
   15.3920   11.3600   24.6240 H   0  0  0  0  0  0  0  0  0  0  0  0
   16.0140    9.1460   22.6580 H   0  0  0  0  0  0  0  0  0  0  0  0
   16.3210   10.8820   22.4120 H   0  0  0  0  0  0  0  0  0  0  0  0
   14.6500   10.2850   22.5560 H   0  0  0  0  0  0  0  0  0  0  0  0
   15.2350    8.3100   24.7600 H   0  0  0  0  0  0  0  0  0  0  0  0
   13.8370    9.4100   24.6740 H   0  0  0  0  0  0  0  0  0  0  0  0
   14.8900    9.4190   26.1090 H   0  0  0  0  0  0  0  0  0  0  0  0
   16.5920   13.4050   23.4630 H   0  0  0  0  0  0  0  0  0  0  0  0
   17.2790   15.4180   25.3970 H   0  0  0  0  0  0  0  0  0  0  0  0
   14.7490   15.1710   23.7830 H   0  0  0  0  0  0  0  0  0  0  0  0
   16.2550   15.9700   23.2730 H   0  0  0  0  0  0  0  0  0  0  0  0
   15.3200   16.6230   24.6390 H   0  0  0  0  0  0  0  0  0  0  0  0
   14.2240   13.7120   28.2930 H   0  0  0  0  0  0  0  0  0  0  0  0
   13.7740   16.5700   29.1330 H   0  0  0  0  0  0  0  0  0  0  0  0
   12.6760   15.1780   29.2970 H   0  0  0  0  0  0  0  0  0  0  0  0
   12.0850   16.3810   27.6240 H   0  0  0  0  0  0  0  0  0  0  0  0
   11.1960   14.7560   27.2300 H   0  0  0  0  0  0  0  0  0  0  0  0
   12.6320   13.8970   26.6240 H   0  0  0  0  0  0  0  0  0  0  0  0
   14.4730   17.0770   26.4280 H   0  0  0  0  0  0  0  0  0  0  0  0
   13.0500   17.9520   27.0420 H   0  0  0  0  0  0  0  0  0  0  0  0
   10.5150   15.0310   25.2250 H   0  0  0  0  0  0  0  0  0  0  0  0
   11.9520   14.1760   24.6180 H   0  0  0  0  0  0  0  0  0  0  0  0
   13.7840   17.3680   24.4320 H   0  0  0  0  0  0  0  0  0  0  0  0
   12.3530   18.2280   25.0470 H   0  0  0  0  0  0  0  0  0  0  0  0
   11.0940   16.7830   24.1390 H   0  0  0  0  0  0  0  0  0  0  0  0
   12.5260   15.9230   23.5230 H   0  0  0  0  0  0  0  0  0  0  0  0
   17.0220   16.5150   26.8940 H   0  0  0  0  0  0  0  0  0  0  0  0
   17.0850   16.1040   28.6250 H   0  0  0  0  0  0  0  0  0  0  0  0
   15.8180   17.1950   28.0150 H   0  0  0  0  0  0  0  0  0  0  0  0
  1  2  2  0  0  0  0
  1  5  1  0  0  0  0
  1  6  1  0  0  0  0
  3  5  1  0  0  0  0
  3 63  1  0  0  0  0
  3 64  1  0  0  0  0
  3 65  1  0  0  0  0
  4  5  1  0  0  0  0
  4 66  1  0  0  0  0
  5 67  1  0  0  0  0
  6  7  1  0  0  0  0
  6 68  1  0  0  0  0
  7  8  1  0  0  0  0
  7 10  1  0  0  0  0
  7 69  1  0  0  0  0
  8  9  2  0  0  0  0
  8 22  1  0  0  0  0
 10 11  1  0  0  0  0
 10 12  1  0  0  0  0
 10 70  1  0  0  0  0
 11 71  1  0  0  0  0
 11 72  1  0  0  0  0
 11 73  1  0  0  0  0
 12 74  1  0  0  0  0
 12 75  1  0  0  0  0
 12 76  1  0  0  0  0
 13 22  1  0  0  0  0
 13 77  1  0  0  0  0
 13 78  1  0  0  0  0
 13 79  1  0  0  0  0
 14 19  1  0  0  0  0
 14 80  1  0  0  0  0
 14 81  1  0  0  0  0
 15 19  2  0  0  0  0
 16 20  2  0  0  0  0
 17 18  1  0  0  0  0
 17 19  1  0  0  0  0
 17 82  1  0  0  0  0
 17 83  1  0  0  0  0
 18 21  1  0  0  0  0
 18 84  1  0  0  0  0
 18 85  1  0  0  0  0
 20 21  1  0  0  0  0
 20 23  1  0  0  0  0
 21 22  1  0  0  0  0
 21 86  1  0  0  0  0
 23 24  1  0  0  0  0
 23 87  1  0  0  0  0
 24 25  1  0  0  0  0
 24 32  1  0  0  0  0
 24 88  1  0  0  0  0
 25 26  1  0  0  0  0
 25 89  1  0  0  0  0
 25 90  1  0  0  0  0
 26 27  1  0  0  0  0
 26 28  1  0  0  0  0
 26 91  1  0  0  0  0
 27 29  1  0  0  0  0
 27 92  1  0  0  0  0
 27 93  1  0  0  0  0
 28 30  1  0  0  0  0
 28 94  1  0  0  0  0
 28 95  1  0  0  0  0
 29 31  1  0  0  0  0
 29 96  1  0  0  0  0
 29 97  1  0  0  0  0
 30 31  1  0  0  0  0
 30 98  1  0  0  0  0
 30 99  1  0  0  0  0
 31100  1  0  0  0  0
 31101  1  0  0  0  0
 32 33  1  0  0  0  0
 32 34  1  0  0  0  0
 32102  1  0  0  0  0
 33103  1  0  0  0  0
 34 35  1  0  0  0  0
 34104  1  0  0  0  0
 34105  1  0  0  0  0
 35 36  2  0  0  0  0
 35 37  1  0  0  0  0
 37 38  1  0  0  0  0
 37106  1  0  0  0  0
 38 39  1  0  0  0  0
 38 41  1  0  0  0  0
 38107  1  0  0  0  0
 39 40  2  0  0  0  0
 39 45  1  0  0  0  0
 41 42  1  0  0  0  0
 41108  1  0  0  0  0
 41109  1  0  0  0  0
 42 43  1  0  0  0  0
 42 44  1  0  0  0  0
 42110  1  0  0  0  0
 43111  1  0  0  0  0
 43112  1  0  0  0  0
 43113  1  0  0  0  0
 44114  1  0  0  0  0
 44115  1  0  0  0  0
 44116  1  0  0  0  0
 45 46  1  0  0  0  0
 45117  1  0  0  0  0
 46 47  1  0  0  0  0
 46 49  1  0  0  0  0
 46118  1  0  0  0  0
 47 48  2  0  0  0  0
 47 50  1  0  0  0  0
 49119  1  0  0  0  0
 49120  1  0  0  0  0
 49121  1  0  0  0  0
 50 51  1  0  0  0  0
 50 62  1  0  0  0  0
 51 52  1  0  0  0  0
 51 55  1  0  0  0  0
 51122  1  0  0  0  0
 52 53  2  0  0  0  0
 52 54  1  0  0  0  0
 55 56  1  0  0  0  0
 55123  1  0  0  0  0
 55124  1  0  0  0  0
 56 57  1  0  0  0  0
 56 58  1  0  0  0  0
 56125  1  0  0  0  0
 57 59  1  0  0  0  0
 57126  1  0  0  0  0
 57127  1  0  0  0  0
 58 60  1  0  0  0  0
 58128  1  0  0  0  0
 58129  1  0  0  0  0
 59 61  1  0  0  0  0
 59130  1  0  0  0  0
 59131  1  0  0  0  0
 60 61  1  0  0  0  0
 60132  1  0  0  0  0
 60133  1  0  0  0  0
 61134  1  0  0  0  0
 61135  1  0  0  0  0
 62136  1  0  0  0  0
 62137  1  0  0  0  0
 62138  1  0  0  0  0
M  CHG  1  54  -1
M  END
>  <PARENT_CMPD_ID>
4FGX

>  <STANDARD_TYPE>
IC50

>  <RELATION>
=

>  <STANDARD_VALUE>
0.072999999

>  <STANDARD_UNITS>
uM

>  <COMPOUND_KEY>
5

>  <PUBMED_ID>
23181502

>  <JOURNAL>
J.Med.Chem.

>  <YEAR>
2012

>  <VOLUME>
55

>  <FIRST_PAGE>
10749

>  <Company>
SHCNC

>  <Resolution>
1.59

>  <idx>
88

>  <Model>
Train

>  <target>
7.1366773

>  <des_pred_mlr>
8.4807901

>  <RF_Canvas>
7.1354604

>  <DNN_Canvas>
6.7466369

>  <pred_CoMFA>
7.2280002

>  <pred_COMSIA>
7.0727

>  <pred_abm5>
6.9619355

>  <pred_ff8>
6.0059156

>  <pred_gau6>
7.4585838

>  <CID>
BACE_88

>  <active>
1

>  <des_class_bayes>
1

>  <maacs_class_bayes>
0

>  <radial_class_bayes>
1

>  <dend_class_bayes>
1

>  <molprint_class_bayes>
1

>  <RF_canvas>
1

>  <DNN_canvas>
1

$$$$
3RTN_5836
  MOE2015           3D

 58 61  0  0  0  0  0  0  0  0999 V2000
   21.1670   10.4650   21.8940 C   0  0  0  0  0  0  0  0  0  0  0  0
   21.0450   11.8370   22.1760 C   0  0  0  0  0  0  0  0  0  0  0  0
   20.6480   12.7220   21.1510 C   0  0  0  0  0  0  0  0  0  0  0  0
   20.5460   13.7770   21.3560 H   0  0  0  0  0  0  0  0  0  0  0  0
   21.8260    9.9880   24.0890 C   0  0  0  0  0  0  0  0  0  0  0  0
   21.3470   12.2860   23.4730 C   0  0  0  0  0  0  0  0  0  0  0  0
   21.2750   13.3350   23.7180 H   0  0  0  0  0  0  0  0  0  0  0  0
   18.1620   13.5920   17.3110 C   0  0  0  0  0  0  0  0  0  0  0  0
   17.1600   13.4140   16.9510 H   0  0  0  0  0  0  0  0  0  0  0  0
   20.2170   14.8470   17.2020 C   0  0  0  0  0  0  0  0  0  0  0  0
   20.8070   15.6380   16.7640 H   0  0  0  0  0  0  0  0  0  0  0  0
   22.1750   14.4160   18.6730 C   0  0  0  0  0  0  0  0  0  0  0  0
   22.5530   15.2390   18.0660 H   0  0  0  0  0  0  0  0  0  0  0  0
   22.8150   13.5440   18.5410 H   0  0  0  0  0  0  0  0  0  0  0  0
   22.1730   14.7100   19.7230 H   0  0  0  0  0  0  0  0  0  0  0  0
   19.4960   11.8310   26.1170 C   0  0  0  0  0  0  0  0  0  0  0  0
   17.8260   10.6040   24.6250 C   0  0  0  0  0  0  0  0  0  0  0  0
   18.2020    9.8290   23.9570 H   0  0  0  0  0  0  0  0  0  0  0  0
   15.7530    9.4510   24.2340 C   0  0  0  0  0  0  0  0  0  0  0  0
   14.8510    9.0340   24.6820 H   0  0  0  0  0  0  0  0  0  0  0  0
   16.3410    8.6490   23.7880 H   0  0  0  0  0  0  0  0  0  0  0  0
   16.4800   11.3500   22.6450 C   0  0  0  0  0  0  0  0  0  0  0  0
   16.0480   12.2290   22.1670 H   0  0  0  0  0  0  0  0  0  0  0  0
   17.0790   10.7990   21.9200 H   0  0  0  0  0  0  0  0  0  0  0  0
   16.5830   10.1200   25.3300 C   0  0  0  0  0  0  0  0  0  0  0  0
   16.0390   10.9570   25.7680 H   0  0  0  0  0  0  0  0  0  0  0  0
   16.8380    9.4040   26.1110 H   0  0  0  0  0  0  0  0  0  0  0  0
   15.3430   10.4480   23.1200 C   0  0  0  0  0  0  0  0  0  0  0  0
   14.5420   11.0800   23.5030 H   0  0  0  0  0  0  0  0  0  0  0  0
   14.9790    9.8770   22.2660 H   0  0  0  0  0  0  0  0  0  0  0  0
   17.4120   11.8230   23.7990 C   0  0  0  0  0  0  0  0  0  0  0  0
   18.2980   12.3020   23.3820 H   0  0  0  0  0  0  0  0  0  0  0  0
   16.8800   12.5320   24.4330 H   0  0  0  0  0  0  0  0  0  0  0  0
   19.0400   10.7570   25.4780 N   0  0  0  0  0  0  0  0  0  0  0  0
   19.5980    9.9220   25.5860 H   0  0  0  0  0  0  0  0  0  0  0  0
   18.9060   12.8970   26.2020 O   0  0  0  0  0  0  0  0  0  0  0  0
   20.8510   11.6390   26.8050 C   0  0  0  0  0  0  0  0  0  0  0  0
   20.9040   10.6190   27.1870 H   0  0  0  0  0  0  0  0  0  0  0  0
   20.9200   12.3420   27.6350 H   0  0  0  0  0  0  0  0  0  0  0  0
   22.0440   11.8710   25.8690 C   0  0  0  0  0  0  0  0  0  0  0  0
   22.9140   11.3470   26.2650 H   0  0  0  0  0  0  0  0  0  0  0  0
   22.2550   12.9390   25.8190 H   0  0  0  0  0  0  0  0  0  0  0  0
   21.7450   11.3500   24.4520 C   0  0  0  0  0  0  0  0  0  0  0  0
   21.5460    9.6010   22.8420 N   0  0  0  0  0  0  0  0  0  0  0  0
   22.1950    9.0370   24.9530 N   0  0  0  0  0  0  0  0  0  0  0  0
   22.2520    8.0750   24.6510 H   0  0  0  0  0  0  0  0  0  0  0  0
   22.4170    9.2810   25.9080 H   0  0  0  0  0  0  0  0  0  0  0  0
   20.8850    9.9740   20.6260 C   0  0  0  0  0  0  0  0  0  0  0  0
   20.9690    8.9170   20.4190 H   0  0  0  0  0  0  0  0  0  0  0  0
   20.4930   10.8560   19.6260 C   0  0  0  0  0  0  0  0  0  0  0  0
   20.2660   10.4730   18.6420 H   0  0  0  0  0  0  0  0  0  0  0  0
   20.3870   12.2280   19.8670 C   0  0  0  0  0  0  0  0  0  0  0  0
   19.9660   13.0500   18.8210 C   0  0  0  0  0  0  0  0  0  0  0  0
   18.6770   12.8160   18.3430 C   0  0  0  0  0  0  0  0  0  0  0  0
   18.0770   12.0290   18.7760 H   0  0  0  0  0  0  0  0  0  0  0  0
   18.9360   14.5970   16.7420 C   0  0  0  0  0  0  0  0  0  0  0  0
   18.5340   15.1880   15.9330 H   0  0  0  0  0  0  0  0  0  0  0  0
   20.7400   14.0710   18.2340 C   0  0  0  0  0  0  0  0  0  0  0  0
  1  2  1  0  0  0  0
  1 44  2  0  0  0  0
  1 48  1  0  0  0  0
  2  3  1  0  0  0  0
  2  6  2  0  0  0  0
  3  4  1  0  0  0  0
  3 52  2  0  0  0  0
  5 43  2  0  0  0  0
  5 44  1  0  0  0  0
  5 45  1  0  0  0  0
  6  7  1  0  0  0  0
  6 43  1  0  0  0  0
  8  9  1  0  0  0  0
  8 54  2  0  0  0  0
  8 56  1  0  0  0  0
 10 11  1  0  0  0  0
 10 56  2  0  0  0  0
 10 58  1  0  0  0  0
 12 13  1  0  0  0  0
 12 14  1  0  0  0  0
 12 15  1  0  0  0  0
 12 58  1  0  0  0  0
 16 34  1  0  0  0  0
 16 36  2  0  0  0  0
 16 37  1  0  0  0  0
 17 18  1  0  0  0  0
 17 25  1  0  0  0  0
 17 31  1  0  0  0  0
 17 34  1  0  0  0  0
 19 20  1  0  0  0  0
 19 21  1  0  0  0  0
 19 25  1  0  0  0  0
 19 28  1  0  0  0  0
 22 23  1  0  0  0  0
 22 24  1  0  0  0  0
 22 28  1  0  0  0  0
 22 31  1  0  0  0  0
 25 26  1  0  0  0  0
 25 27  1  0  0  0  0
 28 29  1  0  0  0  0
 28 30  1  0  0  0  0
 31 32  1  0  0  0  0
 31 33  1  0  0  0  0
 34 35  1  0  0  0  0
 37 38  1  0  0  0  0
 37 39  1  0  0  0  0
 37 40  1  0  0  0  0
 40 41  1  0  0  0  0
 40 42  1  0  0  0  0
 40 43  1  0  0  0  0
 45 46  1  0  0  0  0
 45 47  1  0  0  0  0
 48 49  1  0  0  0  0
 48 50  2  0  0  0  0
 50 51  1  0  0  0  0
 50 52  1  0  0  0  0
 52 53  1  0  0  0  0
 53 54  1  0  0  0  0
 53 58  2  0  0  0  0
 54 55  1  0  0  0  0
 56 57  1  0  0  0  0
M  END
>  <PARENT_CMPD_ID>
3RTN

>  <STANDARD_TYPE>
IC50

>  <RELATION>
=

>  <STANDARD_VALUE>
0.074000001

>  <STANDARD_UNITS>
uM

>  <COMPOUND_KEY>
42

>  <PUBMED_ID>
21707077

>  <JOURNAL>
J.Med.Chem.

>  <YEAR>
2011

>  <VOLUME>
54

>  <FIRST_PAGE>
5836

>  <Company>
Amgen

>  <Resolution>
2.7

>  <idx>
89

>  <Model>
Train

>  <target>
7.1307683

>  <des_pred_mlr>
7.2741399

>  <RF_Canvas>
6.8990588

>  <DNN_Canvas>
6.9689517

>  <pred_CoMFA>
7.3115001

>  <pred_COMSIA>
6.7350001

>  <pred_abm5>
7.3100042

>  <pred_ff8>
5.583097

>  <pred_gau6>
7.128294

>  <CID>
BACE_89

>  <active>
1

>  <des_class_bayes>
1

>  <maacs_class_bayes>
0

>  <radial_class_bayes>
1

>  <dend_class_bayes>
1

>  <molprint_class_bayes>
1

>  <RF_canvas>
1

>  <DNN_canvas>
0

$$$$
4K9H_4459
  MOE2015           3D

 82 86  0  0  1  0  0  0  0  0999 V2000
   29.1330   14.2400   26.5770 O   0  0  0  0  0  0  0  0  0  0  0  0
   28.6140   15.3280   26.2460 C   0  0  0  0  0  0  0  0  0  0  0  0
   28.9260   16.6070   26.9640 C   0  0  0  0  0  0  0  0  0  0  0  0
   27.9550   17.6450   26.3240 C   0  0  0  0  0  0  0  0  0  0  0  0
   27.3750   16.9790   25.0840 C   0  0  0  0  0  0  0  0  0  0  0  0
   27.7510   15.5610   25.2120 N   0  0  0  0  0  0  0  0  0  0  0  0
   27.3480   14.6240   24.3830 C   0  0  0  0  0  0  0  0  0  0  0  0
   26.0140   14.1600   24.3230 C   0  0  0  0  0  0  0  0  0  0  0  0
   28.3320   14.0450   23.5930 C   0  0  0  0  0  0  0  0  0  0  0  0
   29.5040   14.3860   23.6460 O   0  0  0  0  0  0  0  0  0  0  0  0
   28.0160   13.0480   22.7520 N   0  0  0  0  0  0  0  0  0  0  0  0
   29.1060   12.5070   21.9440 C   0  0  0  0  0  0  0  0  0  0  0  0
   28.7420   12.5620   20.4260 C   0  0  0  0  0  0  0  0  0  0  0  0
   28.9030   11.1500   19.9360 C   0  0  0  0  0  0  0  0  0  0  0  0
   28.6920   10.3060   21.1820 C   0  0  0  0  0  0  0  0  0  0  0  0
   29.4080   11.0440   22.2910 C   0  0  0  0  0  0  0  0  0  0  0  0
   26.7330   12.5690   22.6810 C   0  0  0  0  0  0  0  0  0  0  0  0
   25.7080   13.1340   23.4240 C   0  0  0  0  0  0  0  0  0  0  0  0
   24.2820   12.5320   23.3030 C   0  0  0  0  0  0  0  0  0  0  0  0
   23.3170   13.2360   23.5610 O   0  0  0  0  0  0  0  0  0  0  0  0
   24.2110   11.1950   23.2370 N   0  0  0  0  0  0  0  0  0  0  0  0
   22.9440   10.4760   23.0320 C   0  0  3  0  0  0  0  0  0  0  0  0
   23.1220    9.5080   21.8290 C   0  0  0  0  0  0  0  0  0  0  0  0
   23.8770   10.1870   20.6540 C   0  0  0  0  0  0  0  0  0  0  0  0
   23.5630   11.4780   20.2240 C   0  0  0  0  0  0  0  0  0  0  0  0
   24.2770   12.0740   19.1830 C   0  0  0  0  0  0  0  0  0  0  0  0
   25.2730   11.3710   18.5280 C   0  0  0  0  0  0  0  0  0  0  0  0
   25.5670   10.0840   18.9410 C   0  0  0  0  0  0  0  0  0  0  0  0
   24.8920    9.5170   20.0050 C   0  0  0  0  0  0  0  0  0  0  0  0
   22.3590    9.7370   24.1990 C   0  0  3  0  0  0  0  0  0  0  0  0
   21.2100    9.0160   23.7460 O   0  0  0  0  0  0  0  0  0  0  0  0
   21.8950   10.6810   25.3120 C   0  0  0  0  0  0  0  0  0  0  0  0
   21.0870    9.9120   26.2460 N   0  3  0  0  0  0  0  0  0  0  0  0
   20.3140   10.8140   27.1650 C   0  0  0  0  0  0  0  0  0  0  0  0
   19.0650   11.3520   26.3800 C   0  0  0  0  0  0  0  0  0  0  0  0
   18.2190   10.4920   25.6420 C   0  0  0  0  0  0  0  0  0  0  0  0
   18.8020   12.7100   26.4110 C   0  0  0  0  0  0  0  0  0  0  0  0
   17.6920   13.1770   25.6920 C   0  0  0  0  0  0  0  0  0  0  0  0
   16.8720   12.3220   24.9740 C   0  0  0  0  0  0  0  0  0  0  0  0
   17.1020   10.9570   24.9580 C   0  0  0  0  0  0  0  0  0  0  0  0
   16.1630    9.9760   24.1360 C   0  0  0  0  0  0  0  0  0  0  0  0
   15.0330   10.5070   23.7000 F   0  0  0  0  0  0  0  0  0  0  0  0
   15.8010    8.8760   24.7930 F   0  0  0  0  0  0  0  0  0  0  0  0
   16.8700    9.6170   23.0930 F   0  0  0  0  0  0  0  0  0  0  0  0
   29.9640   16.8980   26.8040 H   0  0  0  0  0  0  0  0  0  0  0  0
   28.7370   16.5070   28.0330 H   0  0  0  0  0  0  0  0  0  0  0  0
   28.4980   18.5490   26.0480 H   0  0  0  0  0  0  0  0  0  0  0  0
   27.1590   17.8980   27.0240 H   0  0  0  0  0  0  0  0  0  0  0  0
   27.8040   17.4100   24.1800 H   0  0  0  0  0  0  0  0  0  0  0  0
   26.2910   17.0890   25.0600 H   0  0  0  0  0  0  0  0  0  0  0  0
   25.2500   14.5870   24.9560 H   0  0  0  0  0  0  0  0  0  0  0  0
   29.9810   13.1200   22.1590 H   0  0  0  0  0  0  0  0  0  0  0  0
   29.4180   13.2320   19.8940 H   0  0  0  0  0  0  0  0  0  0  0  0
   27.7150   12.9000   20.2900 H   0  0  0  0  0  0  0  0  0  0  0  0
   29.9000   10.9930   19.5250 H   0  0  0  0  0  0  0  0  0  0  0  0
   28.1570   10.9150   19.1770 H   0  0  0  0  0  0  0  0  0  0  0  0
   29.1190    9.3120   21.0470 H   0  0  0  0  0  0  0  0  0  0  0  0
   27.6290   10.2170   21.4070 H   0  0  0  0  0  0  0  0  0  0  0  0
   29.0060   10.7770   23.2690 H   0  0  0  0  0  0  0  0  0  0  0  0
   30.4800   10.8450   22.2720 H   0  0  0  0  0  0  0  0  0  0  0  0
   26.5160   11.7330   22.0320 H   0  0  0  0  0  0  0  0  0  0  0  0
   25.0620   10.6590   23.3320 H   0  0  0  0  0  0  0  0  0  0  0  0
   22.2100   11.2610   22.8520 H   0  0  0  0  0  0  0  0  0  0  0  0
   22.1390    9.1920   21.4810 H   0  0  0  0  0  0  0  0  0  0  0  0
   23.6890    8.6370   22.1570 H   0  0  0  0  0  0  0  0  0  0  0  0
   22.7600   12.0200   20.7010 H   0  0  0  0  0  0  0  0  0  0  0  0
   24.0510   13.0880   18.8880 H   0  0  0  0  0  0  0  0  0  0  0  0
   25.8120   11.8200   17.7070 H   0  0  0  0  0  0  0  0  0  0  0  0
   26.3300    9.5180   18.4280 H   0  0  0  0  0  0  0  0  0  0  0  0
   25.1660    8.5260   20.3360 H   0  0  0  0  0  0  0  0  0  0  0  0
   23.1340    9.0820   24.5970 H   0  0  0  0  0  0  0  0  0  0  0  0
   20.5780    9.6570   23.4130 H   0  0  0  0  0  0  0  0  0  0  0  0
   21.3000   11.4900   24.8870 H   0  0  0  0  0  0  0  0  0  0  0  0
   22.7600   11.0980   25.8280 H   0  0  0  0  0  0  0  0  0  0  0  0
   21.6930    9.3210   26.7970 H   0  0  0  0  0  0  0  0  0  0  0  0
   20.4390    9.3380   25.7260 H   0  0  0  0  0  0  0  0  0  0  0  0
   20.9410   11.6480   27.4780 H   0  0  0  0  0  0  0  0  0  0  0  0
   19.9870   10.2560   28.0420 H   0  0  0  0  0  0  0  0  0  0  0  0
   18.4490    9.4370   25.6090 H   0  0  0  0  0  0  0  0  0  0  0  0
   19.4300   13.3880   26.9700 H   0  0  0  0  0  0  0  0  0  0  0  0
   17.4700   14.2340   25.6980 H   0  0  0  0  0  0  0  0  0  0  0  0
   16.0400   12.7270   24.4180 H   0  0  0  0  0  0  0  0  0  0  0  0
  1  2  2  0  0  0  0
  2  3  1  0  0  0  0
  2  6  1  0  0  0  0
  3  4  1  0  0  0  0
  3 45  1  0  0  0  0
  3 46  1  0  0  0  0
  4  5  1  0  0  0  0
  4 47  1  0  0  0  0
  4 48  1  0  0  0  0
  5  6  1  0  0  0  0
  5 49  1  0  0  0  0
  5 50  1  0  0  0  0
  6  7  1  0  0  0  0
  7  8  2  0  0  0  0
  7  9  1  0  0  0  0
  8 18  1  0  0  0  0
  8 51  1  0  0  0  0
  9 10  2  0  0  0  0
  9 11  1  0  0  0  0
 11 12  1  0  0  0  0
 11 17  1  0  0  0  0
 12 13  1  0  0  0  0
 12 16  1  0  0  0  0
 12 52  1  0  0  0  0
 13 14  1  0  0  0  0
 13 53  1  0  0  0  0
 13 54  1  0  0  0  0
 14 15  1  0  0  0  0
 14 55  1  0  0  0  0
 14 56  1  0  0  0  0
 15 16  1  0  0  0  0
 15 57  1  0  0  0  0
 15 58  1  0  0  0  0
 16 59  1  0  0  0  0
 16 60  1  0  0  0  0
 17 18  2  0  0  0  0
 17 61  1  0  0  0  0
 18 19  1  0  0  0  0
 19 20  2  0  0  0  0
 19 21  1  0  0  0  0
 21 22  1  0  0  0  0
 21 62  1  0  0  0  0
 22 23  1  0  0  0  0
 22 30  1  0  0  0  0
 22 63  1  0  0  0  0
 23 24  1  0  0  0  0
 23 64  1  0  0  0  0
 23 65  1  0  0  0  0
 24 25  1  0  0  0  0
 24 29  2  0  0  0  0
 25 26  2  0  0  0  0
 25 66  1  0  0  0  0
 26 27  1  0  0  0  0
 26 67  1  0  0  0  0
 27 28  2  0  0  0  0
 27 68  1  0  0  0  0
 28 29  1  0  0  0  0
 28 69  1  0  0  0  0
 29 70  1  0  0  0  0
 30 31  1  0  0  0  0
 30 32  1  0  0  0  0
 30 71  1  0  0  0  0
 31 72  1  0  0  0  0
 32 33  1  0  0  0  0
 32 73  1  0  0  0  0
 32 74  1  0  0  0  0
 33 34  1  0  0  0  0
 33 75  1  0  0  0  0
 33 76  1  0  0  0  0
 34 35  1  0  0  0  0
 34 77  1  0  0  0  0
 34 78  1  0  0  0  0
 35 36  1  0  0  0  0
 35 37  2  0  0  0  0
 36 40  2  0  0  0  0
 36 79  1  0  0  0  0
 37 38  1  0  0  0  0
 37 80  1  0  0  0  0
 38 39  2  0  0  0  0
 38 81  1  0  0  0  0
 39 40  1  0  0  0  0
 39 82  1  0  0  0  0
 40 41  1  0  0  0  0
 41 42  1  0  0  0  0
 41 43  1  0  0  0  0
 41 44  1  0  0  0  0
M  CHG  1  33   1
M  END
>  <PARENT_CMPD_ID>
4K9H

>  <STANDARD_TYPE>
IC50

>  <RELATION>
=

>  <STANDARD_VALUE>
0.075999998

>  <STANDARD_UNITS>
uM

>  <COMPOUND_KEY>
7

>  <PUBMED_ID>
23769639

>  <JOURNAL>
Bioorg.Med.Chem.Lett.

>  <YEAR>
2013

>  <VOLUME>
23

>  <FIRST_PAGE>
4459

>  <Company>
Amgen

>  <Resolution>
2.29

>  <idx>
90

>  <Model>
Train

>  <target>
7.1191864

>  <des_pred_mlr>
6.9489498

>  <RF_Canvas>
7.3112698

>  <DNN_Canvas>
6.8995256

>  <pred_CoMFA>
7.1788001

>  <pred_COMSIA>
7.0967999

>  <pred_abm5>
7.1682563

>  <pred_ff8>
7.0859642

>  <pred_gau6>
6.9850574

>  <CID>
BACE_90

>  <active>
1

>  <des_class_bayes>
1

>  <maacs_class_bayes>
1

>  <radial_class_bayes>
1

>  <dend_class_bayes>
1

>  <molprint_class_bayes>
1

>  <RF_canvas>
1

>  <DNN_canvas>
1

$$$$
4J0Z_3980
  MOE2015           3D

 42 44  0  0  1  0  0  0  0  0999 V2000
   25.4790   11.2600   19.0330 C   0  0  0  0  0  0  0  0  0  0  0  0
   24.2270   11.6450   18.6640 C   0  0  0  0  0  0  0  0  0  0  0  0
   23.1500   11.3650   19.4800 C   0  0  0  0  0  0  0  0  0  0  0  0
   23.3190   10.7370   20.6930 C   0  0  0  0  0  0  0  0  0  0  0  0
   24.5600   10.3290   21.0690 C   0  0  0  0  0  0  0  0  0  0  0  0
   22.1450   10.5130   21.5730 C   0  0  3  0  0  0  0  0  0  0  0  0
   21.1560    9.8480   20.6440 C   0  0  0  0  0  0  0  0  0  0  0  0
   21.6860   11.8840   22.1930 C   0  0  3  0  0  0  0  0  0  0  0  0
   22.6320   12.3980   23.2830 C   0  0  0  0  0  0  0  0  0  0  0  0
   22.6590   10.0690   23.8690 C   0  0  0  0  0  0  0  0  0  0  0  0
   22.3530    9.6150   22.6860 N   0  0  0  0  0  0  0  0  0  0  0  0
   25.6190   10.5720   20.2440 C   0  0  0  0  0  0  0  0  0  0  0  0
   21.9170   11.8160   19.1340 F   0  0  0  0  0  0  0  0  0  0  0  0
   22.8460   11.3430   24.2380 O   0  0  0  0  0  0  0  0  0  0  0  0
   20.5090   11.6990   22.8920 F   0  0  0  0  0  0  0  0  0  0  0  0
   22.8360    9.1800   24.8830 N   0  0  0  0  0  0  0  0  0  0  0  0
   26.8310   10.1950   20.7580 N   0  0  0  0  0  0  0  0  0  0  0  0
   28.0470   10.5550   20.3210 C   0  0  0  0  0  0  0  0  0  0  0  0
   29.1710   10.0890   21.1410 C   0  0  0  0  0  0  0  0  0  0  0  0
   28.1950   11.2410   19.3430 O   0  0  0  0  0  0  0  0  0  0  0  0
   28.8800    9.2000   22.1060 N   0  0  0  0  0  0  0  0  0  0  0  0
   29.7980    8.7290   22.9410 C   0  0  0  0  0  0  0  0  0  0  0  0
   31.1080    9.2490   22.8440 C   0  0  0  0  0  0  0  0  0  0  0  0
   31.4430   10.2420   21.8420 C   0  0  0  0  0  0  0  0  0  0  0  0
   30.4500   10.6690   20.9790 C   0  0  0  0  0  0  0  0  0  0  0  0
   32.1330    8.7650   23.7350 C   0  0  0  0  0  0  0  0  0  0  0  0
   32.9710    8.3940   24.4260 N   0  0  0  0  0  0  0  0  0  0  0  0
   20.0740    9.4930   21.4400 F   0  0  0  0  0  0  0  0  0  0  0  0
   26.3360   11.4780   18.4120 H   0  0  0  0  0  0  0  0  0  0  0  0
   24.0760   12.1700   17.7320 H   0  0  0  0  0  0  0  0  0  0  0  0
   24.7060    9.8190   22.0100 H   0  0  0  0  0  0  0  0  0  0  0  0
   21.5990    8.9630   20.1880 H   0  0  0  0  0  0  0  0  0  0  0  0
   20.8420   10.5410   19.8630 H   0  0  0  0  0  0  0  0  0  0  0  0
   21.6270   12.5710   21.3490 H   0  0  0  0  0  0  0  0  0  0  0  0
   22.1860   13.2590   23.7810 H   0  0  0  0  0  0  0  0  0  0  0  0
   23.5830   12.6880   22.8370 H   0  0  0  0  0  0  0  0  0  0  0  0
   22.7300    8.1900   24.7110 H   0  0  0  0  0  0  0  0  0  0  0  0
   23.0740    9.5090   25.8080 H   0  0  0  0  0  0  0  0  0  0  0  0
   26.8070    9.5760   21.5560 H   0  0  0  0  0  0  0  0  0  0  0  0
   29.5510    7.9720   23.6710 H   0  0  0  0  0  0  0  0  0  0  0  0
   32.4450   10.6390   21.7710 H   0  0  0  0  0  0  0  0  0  0  0  0
   30.6430   11.4100   20.2180 H   0  0  0  0  0  0  0  0  0  0  0  0
  1  2  1  0  0  0  0
  1 12  2  0  0  0  0
  1 29  1  0  0  0  0
  2  3  2  0  0  0  0
  2 30  1  0  0  0  0
  3  4  1  0  0  0  0
  3 13  1  0  0  0  0
  4  5  2  0  0  0  0
  4  6  1  0  0  0  0
  5 12  1  0  0  0  0
  5 31  1  0  0  0  0
  6  7  1  0  0  0  0
  6  8  1  0  0  0  0
  6 11  1  0  0  0  0
  7 28  1  0  0  0  0
  7 32  1  0  0  0  0
  7 33  1  0  0  0  0
  8  9  1  0  0  0  0
  8 15  1  0  0  0  0
  8 34  1  0  0  0  0
  9 14  1  0  0  0  0
  9 35  1  0  0  0  0
  9 36  1  0  0  0  0
 10 11  2  0  0  0  0
 10 14  1  0  0  0  0
 10 16  1  0  0  0  0
 12 17  1  0  0  0  0
 16 37  1  0  0  0  0
 16 38  1  0  0  0  0
 17 18  1  0  0  0  0
 17 39  1  0  0  0  0
 18 19  1  0  0  0  0
 18 20  2  0  0  0  0
 19 21  1  0  0  0  0
 19 25  2  0  0  0  0
 21 22  2  0  0  0  0
 22 23  1  0  0  0  0
 22 40  1  0  0  0  0
 23 24  2  0  0  0  0
 23 26  1  0  0  0  0
 24 25  1  0  0  0  0
 24 41  1  0  0  0  0
 25 42  1  0  0  0  0
 26 27  3  0  0  0  0
M  END
>  <PARENT_CMPD_ID>
4J0Z

>  <STANDARD_TYPE>
IC50

>  <RELATION>
=

>  <STANDARD_VALUE>
0.077

>  <STANDARD_UNITS>
uM

>  <COMPOUND_KEY>
68

>  <PUBMED_ID>
23590342

>  <JOURNAL>
J.Med.Chem.

>  <YEAR>
2013

>  <VOLUME>
56

>  <FIRST_PAGE>
3980

>  <Company>
Roche

>  <Resolution>
2.1300001

>  <idx>
91

>  <Model>
Train

>  <target>
7.1135092

>  <des_pred_mlr>
6.3721499

>  <RF_Canvas>
7.1087265

>  <DNN_Canvas>
6.9189162

>  <pred_CoMFA>
7.3034

>  <pred_COMSIA>
6.7649002

>  <pred_abm5>
7.2563095

>  <pred_ff8>
7.096065

>  <pred_gau6>
7.4219098

>  <CID>
BACE_91

>  <active>
1

>  <des_class_bayes>
1

>  <maacs_class_bayes>
1

>  <radial_class_bayes>
1

>  <dend_class_bayes>
1

>  <molprint_class_bayes>
1

>  <RF_canvas>
1

>  <DNN_canvas>
1

$$$$
4ACX_1854
  MOE2015           3D

 54 57  0  0  1  0  0  0  0  0999 V2000
   29.6400    9.2750   22.9970 C   0  0  0  0  0  0  0  0  0  0  0  0
   29.8710    9.6520   23.9930 H   0  0  0  0  0  0  0  0  0  0  0  0
   30.4150    8.5750   22.6850 H   0  0  0  0  0  0  0  0  0  0  0  0
   28.6760    8.7660   23.0150 H   0  0  0  0  0  0  0  0  0  0  0  0
   29.5860   10.3600   22.0810 O   0  0  0  0  0  0  0  0  0  0  0  0
   29.2840    9.8240   20.8000 C   0  0  0  0  0  0  0  0  0  0  0  0
   29.4310    8.7440   20.8200 H   0  0  0  0  0  0  0  0  0  0  0  0
   29.9500   10.2680   20.0600 H   0  0  0  0  0  0  0  0  0  0  0  0
   27.9010   10.1130   20.4340 C   0  0  0  0  0  0  0  0  0  0  0  0
   26.7640   10.3540   20.1380 C   0  0  0  0  0  0  0  0  0  0  0  0
   25.4150   10.6450   19.7980 C   0  0  0  0  0  0  0  0  0  0  0  0
   25.0760   11.1400   18.5540 C   0  0  0  0  0  0  0  0  0  0  0  0
   25.8340   11.2900   17.8000 H   0  0  0  0  0  0  0  0  0  0  0  0
   23.7540   11.4410   18.2870 C   0  0  0  0  0  0  0  0  0  0  0  0
   23.4730   11.8290   17.3190 H   0  0  0  0  0  0  0  0  0  0  0  0
   22.7920   11.2450   19.2580 C   0  0  0  0  0  0  0  0  0  0  0  0
   21.7650   11.5040   19.0470 H   0  0  0  0  0  0  0  0  0  0  0  0
   23.1200   10.7230   20.4970 C   0  0  0  0  0  0  0  0  0  0  0  0
   24.4480   10.4380   20.7560 C   0  0  0  0  0  0  0  0  0  0  0  0
   24.7310   10.0480   21.7230 H   0  0  0  0  0  0  0  0  0  0  0  0
   22.0900   10.5090   21.5730 C   0  0  3  0  0  0  0  0  0  0  0  0
   22.1760   11.6800   22.5110 C   0  0  0  0  0  0  0  0  0  0  0  0
   22.1910   12.9480   22.2520 N   0  0  0  0  0  0  0  0  0  0  0  0
   22.2880   13.9360   23.3340 C   0  0  0  0  0  0  0  0  0  0  0  0
   21.6290   14.7740   23.1070 H   0  0  0  0  0  0  0  0  0  0  0  0
   23.3170   14.2900   23.3970 H   0  0  0  0  0  0  0  0  0  0  0  0
   21.8880   13.3450   24.6750 C   0  0  0  0  0  0  0  0  0  0  0  0
   22.5270   11.9890   24.9180 C   0  0  0  0  0  0  0  0  0  0  0  0
   22.0960   11.5380   25.8120 H   0  0  0  0  0  0  0  0  0  0  0  0
   23.6010   12.1120   25.0550 H   0  0  0  0  0  0  0  0  0  0  0  0
   22.2770   11.1290   23.7690 N   0  0  0  0  0  0  0  0  0  0  0  0
   22.5140    9.7870   23.6520 C   0  0  0  0  0  0  0  0  0  0  0  0
   22.4370    9.3790   22.4340 N   0  3  0  0  0  0  0  0  0  0  0  0
   22.8040    8.9520   24.7010 N   0  0  0  0  0  0  0  0  0  0  0  0
   22.9680    7.9700   24.5340 H   0  0  0  0  0  0  0  0  0  0  0  0
   22.8530    9.3200   25.6400 H   0  0  0  0  0  0  0  0  0  0  0  0
   20.5350   13.2220   24.7440 F   0  0  0  0  0  0  0  0  0  0  0  0
   22.2410   14.2050   25.6670 F   0  0  0  0  0  0  0  0  0  0  0  0
   20.7060   10.2800   21.0110 C   0  0  0  0  0  0  0  0  0  0  0  0
   20.3980    9.0580   20.4350 C   0  0  0  0  0  0  0  0  0  0  0  0
   21.1460    8.2800   20.4010 H   0  0  0  0  0  0  0  0  0  0  0  0
   19.1440    8.8250   19.9040 C   0  0  0  0  0  0  0  0  0  0  0  0
   18.9160    7.8710   19.4520 H   0  0  0  0  0  0  0  0  0  0  0  0
   18.1820    9.8170   19.9530 C   0  0  0  0  0  0  0  0  0  0  0  0
   18.4710   11.0400   20.5180 C   0  0  0  0  0  0  0  0  0  0  0  0
   17.7220   11.8170   20.5510 H   0  0  0  0  0  0  0  0  0  0  0  0
   19.7290   11.2610   21.0410 C   0  0  0  0  0  0  0  0  0  0  0  0
   19.9560   12.2200   21.4830 H   0  0  0  0  0  0  0  0  0  0  0  0
   16.9080    9.6480   19.4290 O   0  0  0  0  0  0  0  0  0  0  0  0
   16.2550    8.3790   19.3860 C   0  0  0  0  0  0  0  0  0  0  0  0
   16.4910    7.8260   20.2950 H   0  0  0  0  0  0  0  0  0  0  0  0
   14.9090    8.5590   19.2970 F   0  0  0  0  0  0  0  0  0  0  0  0
   16.6850    7.6780   18.3040 F   0  0  0  0  0  0  0  0  0  0  0  0
   22.5910    8.4310   22.1230 H   0  0  0  0  0  0  0  0  0  0  0  0
  1  2  1  0  0  0  0
  1  3  1  0  0  0  0
  1  4  1  0  0  0  0
  1  5  1  0  0  0  0
  5  6  1  0  0  0  0
  6  7  1  0  0  0  0
  6  8  1  0  0  0  0
  6  9  1  0  0  0  0
  9 10  3  0  0  0  0
 10 11  1  0  0  0  0
 11 12  1  0  0  0  0
 11 19  2  0  0  0  0
 12 13  1  0  0  0  0
 12 14  2  0  0  0  0
 14 15  1  0  0  0  0
 14 16  1  0  0  0  0
 16 17  1  0  0  0  0
 16 18  2  0  0  0  0
 18 19  1  0  0  0  0
 18 21  1  0  0  0  0
 19 20  1  0  0  0  0
 21 22  1  0  0  0  0
 21 33  1  0  0  0  0
 21 39  1  0  0  0  0
 22 23  2  0  0  0  0
 22 31  1  0  0  0  0
 23 24  1  0  0  0  0
 24 25  1  0  0  0  0
 24 26  1  0  0  0  0
 24 27  1  0  0  0  0
 27 28  1  0  0  0  0
 27 37  1  0  0  0  0
 27 38  1  0  0  0  0
 28 29  1  0  0  0  0
 28 30  1  0  0  0  0
 28 31  1  0  0  0  0
 31 32  1  0  0  0  0
 32 33  2  0  0  0  0
 32 34  1  0  0  0  0
 33 54  1  0  0  0  0
 34 35  1  0  0  0  0
 34 36  1  0  0  0  0
 39 40  1  0  0  0  0
 39 47  2  0  0  0  0
 40 41  1  0  0  0  0
 40 42  2  0  0  0  0
 42 43  1  0  0  0  0
 42 44  1  0  0  0  0
 44 45  2  0  0  0  0
 44 49  1  0  0  0  0
 45 46  1  0  0  0  0
 45 47  1  0  0  0  0
 47 48  1  0  0  0  0
 49 50  1  0  0  0  0
 50 51  1  0  0  0  0
 50 52  1  0  0  0  0
 50 53  1  0  0  0  0
M  CHG  1  33   1
M  END
>  <PARENT_CMPD_ID>
4ACX

>  <STANDARD_TYPE>
IC50

>  <RELATION>
=

>  <STANDARD_UNITS>
uM

>  <COMPOUND_KEY>
23

>  <PUBMED_ID>
22325942

>  <JOURNAL>
Bioorg.Med.Chem.Lett.

>  <YEAR>
2012

>  <VOLUME>
22

>  <FIRST_PAGE>
1854

>  <Company>
AstraZeneca

>  <Resolution>
2

>  <idx>
92

>  <Model>
Train

>  <target>
7.1100001

>  <des_pred_mlr>
6.93929

>  <RF_Canvas>
7.2443571

>  <DNN_Canvas>
7.1831956

>  <pred_CoMFA>
6.7533002

>  <pred_COMSIA>
6.9597001

>  <pred_abm5>
7.3266625

>  <pred_ff8>
5.8958659

>  <pred_gau6>
6.8741107

>  <CID>
BACE_92

>  <active>
1

>  <des_class_bayes>
1

>  <maacs_class_bayes>
1

>  <radial_class_bayes>
1

>  <dend_class_bayes>
1

>  <molprint_class_bayes>
1

>  <RF_canvas>
1

>  <DNN_canvas>
1

$$$$
4DPI_4377
  MOE2015           3D

 86 89  0  0  1  0  0  0  0  0999 V2000
   30.3900    9.9790   22.0540 C   0  0  0  0  0  0  0  0  0  0  0  0
   27.5620   14.7510   23.7760 C   0  0  0  0  0  0  0  0  0  0  0  0
   28.5020   15.2830   23.8010 H   0  0  0  0  0  0  0  0  0  0  0  0
   26.4580   15.2530   24.4660 C   0  0  0  0  0  0  0  0  0  0  0  0
   25.2160   14.5600   24.4650 C   0  0  0  0  0  0  0  0  0  0  0  0
   24.3710   14.9320   25.0250 H   0  0  0  0  0  0  0  0  0  0  0  0
   27.4500   13.5410   23.0410 C   0  0  0  0  0  0  0  0  0  0  0  0
   26.2070   12.9130   22.9790 C   0  0  0  0  0  0  0  0  0  0  0  0
   26.0820   12.0460   22.3470 H   0  0  0  0  0  0  0  0  0  0  0  0
   25.1230   13.3830   23.7180 C   0  0  0  0  0  0  0  0  0  0  0  0
   28.5740   12.9170   22.2950 C   0  0  3  0  0  0  0  0  0  0  0  0
   28.5220   12.7470   21.2200 H   0  0  0  0  0  0  0  0  0  0  0  0
   31.7920    9.9850   21.9600 C   0  0  0  0  0  0  0  0  0  0  0  0
   32.2790   10.6410   21.2540 H   0  0  0  0  0  0  0  0  0  0  0  0
   28.8100   10.3170   20.0070 C   0  0  0  0  0  0  0  0  0  0  0  0
   28.6980   11.0900   19.2460 H   0  0  0  0  0  0  0  0  0  0  0  0
   29.4160    9.5020   19.6110 H   0  0  0  0  0  0  0  0  0  0  0  0
   27.4300    9.7670   20.3290 C   0  0  0  0  0  0  0  0  0  0  0  0
   27.3500    8.9350   21.0140 H   0  0  0  0  0  0  0  0  0  0  0  0
   18.0060   10.5600   25.6380 C   0  0  0  0  0  0  0  0  0  0  0  0
   18.1790    9.4970   25.7230 H   0  0  0  0  0  0  0  0  0  0  0  0
   16.2370    9.9340   24.1020 C   0  0  0  0  0  0  0  0  0  0  0  0
   16.9880    9.1850   23.8490 H   0  0  0  0  0  0  0  0  0  0  0  0
   15.2140    9.2890   25.0150 C   0  0  0  0  0  0  0  0  0  0  0  0
   14.4520   10.0210   25.2810 H   0  0  0  0  0  0  0  0  0  0  0  0
   15.7070    8.9330   25.9190 H   0  0  0  0  0  0  0  0  0  0  0  0
   14.7470    8.4490   24.5010 H   0  0  0  0  0  0  0  0  0  0  0  0
   15.6970   10.2960   22.7210 C   0  0  0  0  0  0  0  0  0  0  0  0
   14.9200   11.0530   22.8220 H   0  0  0  0  0  0  0  0  0  0  0  0
   15.2790    9.4070   22.2500 H   0  0  0  0  0  0  0  0  0  0  0  0
   16.5070   10.6870   22.1050 H   0  0  0  0  0  0  0  0  0  0  0  0
   23.3080    9.7020   21.9040 C   0  0  0  0  0  0  0  0  0  0  0  0
   22.4930    9.2400   21.3460 H   0  0  0  0  0  0  0  0  0  0  0  0
   23.9050    8.9270   22.3840 H   0  0  0  0  0  0  0  0  0  0  0  0
   16.7290   12.3710   24.7580 C   0  0  0  0  0  0  0  0  0  0  0  0
   15.9060   12.7400   24.1640 H   0  0  0  0  0  0  0  0  0  0  0  0
   16.9730   11.0200   24.8260 C   0  0  0  0  0  0  0  0  0  0  0  0
   18.5660   12.8090   26.2730 C   0  0  0  0  0  0  0  0  0  0  0  0
   19.1580   13.5040   26.8490 H   0  0  0  0  0  0  0  0  0  0  0  0
   23.7970   12.6950   23.6380 C   0  0  0  0  0  0  0  0  0  0  0  0
   22.1120    9.8690   24.1230 C   0  0  3  0  0  0  0  0  0  0  0  0
   22.8930    9.2640   24.5830 H   0  0  0  0  0  0  0  0  0  0  0  0
   21.6000   10.8120   25.2280 C   0  0  0  0  0  0  0  0  0  0  0  0
   20.8840   11.5030   24.7840 H   0  0  0  0  0  0  0  0  0  0  0  0
   22.4490   11.3710   25.6220 H   0  0  0  0  0  0  0  0  0  0  0  0
   19.9620   10.8820   27.1890 C   0  0  0  0  0  0  0  0  0  0  0  0
   19.5510   10.2140   27.9460 H   0  0  0  0  0  0  0  0  0  0  0  0
   20.4780   11.7090   27.6760 H   0  0  0  0  0  0  0  0  0  0  0  0
   18.8180   11.4390   26.3400 C   0  0  0  0  0  0  0  0  0  0  0  0
   22.7430   13.4170   23.6660 O   0  0  0  0  0  0  0  0  0  0  0  0
   23.8510   11.3740   23.4860 N   0  0  0  0  0  0  0  0  0  0  0  0
   24.6940   10.8830   23.7470 H   0  0  0  0  0  0  0  0  0  0  0  0
   22.7380   10.6260   22.9580 C   0  0  3  0  0  0  0  0  0  0  0  0
   21.9640   11.2430   22.5020 H   0  0  0  0  0  0  0  0  0  0  0  0
   20.9430   10.1210   26.3460 N   0  3  0  0  0  0  0  0  0  0  0  0
   21.6730    9.7930   26.9620 H   0  0  0  0  0  0  0  0  0  0  0  0
   20.4500    9.3300   25.9580 H   0  0  0  0  0  0  0  0  0  0  0  0
   17.5410   13.2660   25.4530 C   0  0  0  0  0  0  0  0  0  0  0  0
   17.3710   14.3280   25.3530 H   0  0  0  0  0  0  0  0  0  0  0  0
   21.0730    8.9810   23.6460 O   0  0  0  0  0  0  0  0  0  0  0  0
   20.3910    9.5230   23.2430 H   0  0  0  0  0  0  0  0  0  0  0  0
   24.1420   10.4630   21.0000 O   0  0  0  0  0  0  0  0  0  0  0  0
   25.0100    9.6060   20.2080 C   0  0  0  0  0  0  0  0  0  0  0  0
   24.4730    9.3100   19.3070 H   0  0  0  0  0  0  0  0  0  0  0  0
   25.2490    8.7200   20.7960 H   0  0  0  0  0  0  0  0  0  0  0  0
   26.3060   10.2730   19.7970 C   0  0  0  0  0  0  0  0  0  0  0  0
   26.3250   11.1090   19.1140 H   0  0  0  0  0  0  0  0  0  0  0  0
   29.5520   10.9270   21.2010 C   0  0  3  0  0  0  0  0  0  0  0  0
   30.3090   11.6010   20.8010 H   0  0  0  0  0  0  0  0  0  0  0  0
   32.5680    9.1390   22.7820 C   0  0  0  0  0  0  0  0  0  0  0  0
   33.6450    9.1370   22.7050 H   0  0  0  0  0  0  0  0  0  0  0  0
   31.9170    8.3000   23.7020 C   0  0  0  0  0  0  0  0  0  0  0  0
   32.5030    7.6380   24.3220 H   0  0  0  0  0  0  0  0  0  0  0  0
   30.5270    8.3060   23.8300 C   0  0  0  0  0  0  0  0  0  0  0  0
   30.0330    7.6490   24.5300 H   0  0  0  0  0  0  0  0  0  0  0  0
   29.7920    9.1800   23.0330 C   0  0  0  0  0  0  0  0  0  0  0  0
   28.7230    9.2430   23.1760 H   0  0  0  0  0  0  0  0  0  0  0  0
   28.5520   11.5850   21.9970 N   0  3  0  0  0  0  0  0  0  0  0  0
   27.6740   11.4240   21.5240 H   0  0  0  0  0  0  0  0  0  0  0  0
   28.5480   11.1050   22.8860 H   0  0  0  0  0  0  0  0  0  0  0  0
   29.7080   13.7950   22.3870 O   0  0  0  0  0  0  0  0  0  0  0  0
   29.8370   14.0060   23.3150 H   0  0  0  0  0  0  0  0  0  0  0  0
   26.5490   16.5460   25.2640 C   0  0  0  0  0  0  0  0  0  0  0  0
   27.5530   16.9600   25.1710 H   0  0  0  0  0  0  0  0  0  0  0  0
   26.3360   16.3410   26.3130 H   0  0  0  0  0  0  0  0  0  0  0  0
   25.8230   17.2620   24.8790 H   0  0  0  0  0  0  0  0  0  0  0  0
  1 13  1  0  0  0  0
  1 68  1  0  0  0  0
  1 76  2  0  0  0  0
  2  3  1  0  0  0  0
  2  4  2  0  0  0  0
  2  7  1  0  0  0  0
  4  5  1  0  0  0  0
  4 83  1  0  0  0  0
  5  6  1  0  0  0  0
  5 10  2  0  0  0  0
  7  8  2  0  0  0  0
  7 11  1  0  0  0  0
  8  9  1  0  0  0  0
  8 10  1  0  0  0  0
 10 40  1  0  0  0  0
 11 12  1  0  0  0  0
 11 78  1  0  0  0  0
 11 81  1  0  0  0  0
 13 14  1  0  0  0  0
 13 70  2  0  0  0  0
 15 16  1  0  0  0  0
 15 17  1  0  0  0  0
 15 18  1  0  0  0  0
 15 68  1  0  0  0  0
 18 19  1  0  0  0  0
 18 66  2  0  0  0  0
 20 21  1  0  0  0  0
 20 37  2  0  0  0  0
 20 49  1  0  0  0  0
 22 23  1  0  0  0  0
 22 24  1  0  0  0  0
 22 28  1  0  0  0  0
 22 37  1  0  0  0  0
 24 25  1  0  0  0  0
 24 26  1  0  0  0  0
 24 27  1  0  0  0  0
 28 29  1  0  0  0  0
 28 30  1  0  0  0  0
 28 31  1  0  0  0  0
 32 33  1  0  0  0  0
 32 34  1  0  0  0  0
 32 53  1  0  0  0  0
 32 62  1  0  0  0  0
 35 36  1  0  0  0  0
 35 37  1  0  0  0  0
 35 58  2  0  0  0  0
 38 39  1  0  0  0  0
 38 49  2  0  0  0  0
 38 58  1  0  0  0  0
 40 50  2  0  0  0  0
 40 51  1  0  0  0  0
 41 42  1  0  0  0  0
 41 43  1  0  0  0  0
 41 53  1  0  0  0  0
 41 60  1  0  0  0  0
 43 44  1  0  0  0  0
 43 45  1  0  0  0  0
 43 55  1  0  0  0  0
 46 47  1  0  0  0  0
 46 48  1  0  0  0  0
 46 49  1  0  0  0  0
 46 55  1  0  0  0  0
 51 52  1  0  0  0  0
 51 53  1  0  0  0  0
 53 54  1  0  0  0  0
 55 56  1  0  0  0  0
 55 57  1  0  0  0  0
 58 59  1  0  0  0  0
 60 61  1  0  0  0  0
 62 63  1  0  0  0  0
 63 64  1  0  0  0  0
 63 65  1  0  0  0  0
 63 66  1  0  0  0  0
 66 67  1  0  0  0  0
 68 69  1  0  0  0  0
 68 78  1  0  0  0  0
 70 71  1  0  0  0  0
 70 72  1  0  0  0  0
 72 73  1  0  0  0  0
 72 74  2  0  0  0  0
 74 75  1  0  0  0  0
 74 76  1  0  0  0  0
 76 77  1  0  0  0  0
 78 79  1  0  0  0  0
 78 80  1  0  0  0  0
 81 82  1  0  0  0  0
 83 84  1  0  0  0  0
 83 85  1  0  0  0  0
 83 86  1  0  0  0  0
M  CHG  1  55   1
M  CHG  1  78   1
M  END
>  <PARENT_CMPD_ID>
4DPI

>  <STANDARD_TYPE>
IC50

>  <RELATION>
=

>  <STANDARD_VALUE>
0.078000002

>  <STANDARD_UNITS>
uM

>  <COMPOUND_KEY>
33

>  <PUBMED_ID>
22698785

>  <JOURNAL>
Bioorg.Med.Chem.

>  <YEAR>
2012

>  <VOLUME>
20

>  <FIRST_PAGE>
4377

>  <Company>
Medivir

>  <Resolution>
1.9

>  <idx>
93

>  <Model>
Train

>  <target>
7.1079054

>  <des_pred_mlr>
7.2729001

>  <RF_Canvas>
7.1726437

>  <DNN_Canvas>
6.7854795

>  <pred_CoMFA>
6.8543

>  <pred_COMSIA>
8.3500996

>  <pred_abm5>
7.3098445

>  <pred_ff8>
8.2415133

>  <pred_gau6>
7.210146

>  <CID>
BACE_93

>  <active>
1

>  <des_class_bayes>
1

>  <maacs_class_bayes>
0

>  <radial_class_bayes>
1

>  <dend_class_bayes>
1

>  <molprint_class_bayes>
1

>  <RF_canvas>
1

>  <DNN_canvas>
1

$$$$
4B1C_9297
  MOE2015           3D

 46 49  0  0  1  0  0  0  0  0999 V2000
   22.2960   10.6300   21.8010 C   0  0  3  0  0  0  0  0  0  0  0  0
   22.4760    9.3990   22.5810 N   0  3  0  0  0  0  0  0  0  0  0  0
   22.7170    9.7940   23.7890 C   0  0  0  0  0  0  0  0  0  0  0  0
   20.8960   10.6950   21.2760 C   0  0  0  0  0  0  0  0  0  0  0  0
   23.2790   10.8260   20.6760 C   0  0  0  0  0  0  0  0  0  0  0  0
   24.6240   10.7880   20.9540 C   0  0  0  0  0  0  0  0  0  0  0  0
   25.5890   10.9950   19.9960 C   0  0  0  0  0  0  0  0  0  0  0  0
   25.1840   11.2540   18.7030 C   0  0  0  0  0  0  0  0  0  0  0  0
   23.8330   11.3140   18.4110 C   0  0  0  0  0  0  0  0  0  0  0  0
   22.8800   11.1140   19.3880 C   0  0  0  0  0  0  0  0  0  0  0  0
   22.9610    9.0140   24.8900 N   0  0  0  0  0  0  0  0  0  0  0  0
   23.0050   12.0850   25.0840 C   0  0  0  0  0  0  0  0  0  0  0  0
   19.7730   10.3140   22.2040 C   0  0  0  0  0  0  0  0  0  0  0  0
   20.0860    9.4580   21.0000 C   0  0  0  0  0  0  0  0  0  0  0  0
   26.9950   10.9970   20.3600 C   0  0  0  0  0  0  0  0  0  0  0  0
   27.5450   10.1380   21.2800 C   0  0  0  0  0  0  0  0  0  0  0  0
   28.8940   10.2750   21.5570 C   0  0  0  0  0  0  0  0  0  0  0  0
   29.6430   11.2470   20.9310 C   0  0  0  0  0  0  0  0  0  0  0  0
   27.8420   11.9260   19.7900 C   0  0  0  0  0  0  0  0  0  0  0  0
   29.5240    9.4410   22.5030 C   0  0  0  0  0  0  0  0  0  0  0  0
   22.4760   11.7960   22.7030 N   0  0  0  0  0  0  0  0  0  0  0  0
   29.1440   12.0970   20.0340 N   0  0  0  0  0  0  0  0  0  0  0  0
   22.7250   11.2810   23.8490 C   0  0  0  0  0  0  0  0  0  0  0  0
   30.0680    8.7520   23.3180 C   0  0  0  0  0  0  0  0  0  0  0  0
   30.7260    7.9200   24.2970 C   0  0  0  0  0  0  0  0  0  0  0  0
   21.1660   11.5600   20.6700 H   0  0  0  0  0  0  0  0  0  0  0  0
   24.9370   10.5870   21.9680 H   0  0  0  0  0  0  0  0  0  0  0  0
   25.9160   11.4090   17.9240 H   0  0  0  0  0  0  0  0  0  0  0  0
   23.5190   11.5210   17.3990 H   0  0  0  0  0  0  0  0  0  0  0  0
   21.8300   11.1820   19.1460 H   0  0  0  0  0  0  0  0  0  0  0  0
   22.9650    8.0080   24.8050 H   0  0  0  0  0  0  0  0  0  0  0  0
   23.1370    9.4460   25.7860 H   0  0  0  0  0  0  0  0  0  0  0  0
   23.1850   11.4120   25.9230 H   0  0  0  0  0  0  0  0  0  0  0  0
   22.1480   12.7210   25.3060 H   0  0  0  0  0  0  0  0  0  0  0  0
   23.8860   12.7060   24.9210 H   0  0  0  0  0  0  0  0  0  0  0  0
   18.8600   10.9090   22.2280 H   0  0  0  0  0  0  0  0  0  0  0  0
   19.9940    9.9470   23.2060 H   0  0  0  0  0  0  0  0  0  0  0  0
   20.5330    8.4730   21.1330 H   0  0  0  0  0  0  0  0  0  0  0  0
   19.3980    9.4340   20.1550 H   0  0  0  0  0  0  0  0  0  0  0  0
   26.9470    9.3840   21.7690 H   0  0  0  0  0  0  0  0  0  0  0  0
   30.6910   11.3240   21.1810 H   0  0  0  0  0  0  0  0  0  0  0  0
   27.4010   12.5910   19.0630 H   0  0  0  0  0  0  0  0  0  0  0  0
   30.3080    8.1200   25.2840 H   0  0  0  0  0  0  0  0  0  0  0  0
   31.7930    8.1410   24.3030 H   0  0  0  0  0  0  0  0  0  0  0  0
   30.5730    6.8710   24.0440 H   0  0  0  0  0  0  0  0  0  0  0  0
   22.4230    8.4480   22.2460 H   0  0  0  0  0  0  0  0  0  0  0  0
  1  2  1  0  0  0  0
  1  4  1  0  0  0  0
  1  5  1  0  0  0  0
  1 21  1  0  0  0  0
  2  3  2  0  0  0  0
  2 46  1  0  0  0  0
  3 11  1  0  0  0  0
  3 23  1  0  0  0  0
  4 13  1  0  0  0  0
  4 14  1  0  0  0  0
  4 26  1  0  0  0  0
  5  6  1  0  0  0  0
  5 10  2  0  0  0  0
  6  7  2  0  0  0  0
  6 27  1  0  0  0  0
  7  8  1  0  0  0  0
  7 15  1  0  0  0  0
  8  9  2  0  0  0  0
  8 28  1  0  0  0  0
  9 10  1  0  0  0  0
  9 29  1  0  0  0  0
 10 30  1  0  0  0  0
 11 31  1  0  0  0  0
 11 32  1  0  0  0  0
 12 23  1  0  0  0  0
 12 33  1  0  0  0  0
 12 34  1  0  0  0  0
 12 35  1  0  0  0  0
 13 14  1  0  0  0  0
 13 36  1  0  0  0  0
 13 37  1  0  0  0  0
 14 38  1  0  0  0  0
 14 39  1  0  0  0  0
 15 16  1  0  0  0  0
 15 19  2  0  0  0  0
 16 17  2  0  0  0  0
 16 40  1  0  0  0  0
 17 18  1  0  0  0  0
 17 20  1  0  0  0  0
 18 22  2  0  0  0  0
 18 41  1  0  0  0  0
 19 22  1  0  0  0  0
 19 42  1  0  0  0  0
 20 24  3  0  0  0  0
 21 23  2  0  0  0  0
 24 25  1  0  0  0  0
 25 43  1  0  0  0  0
 25 44  1  0  0  0  0
 25 45  1  0  0  0  0
M  CHG  1   2   1
M  END
>  <PARENT_CMPD_ID>
4B1C

>  <STANDARD_TYPE>
IC50

>  <RELATION>
=

>  <STANDARD_VALUE>
0.079000004

>  <STANDARD_UNITS>
uM

>  <COMPOUND_KEY>
(R)-1t

>  <PUBMED_ID>
23017051

>  <JOURNAL>
J.Med.Chem.

>  <YEAR>
2012

>  <VOLUME>
55

>  <FIRST_PAGE>
9297

>  <Company>
AstraZeneca

>  <Resolution>
1.95

>  <idx>
94

>  <Model>
Train

>  <target>
7.1023731

>  <des_pred_mlr>
6.5299101

>  <RF_Canvas>
6.3526173

>  <DNN_Canvas>
6.8423662

>  <pred_CoMFA>
6.6005998

>  <pred_COMSIA>
6.2330999

>  <pred_abm5>
6.4703884

>  <pred_ff8>
6.5416269

>  <pred_gau6>
6.1756973

>  <CID>
BACE_94

>  <active>
1

>  <des_class_bayes>
1

>  <maacs_class_bayes>
1

>  <radial_class_bayes>
1

>  <dend_class_bayes>
1

>  <molprint_class_bayes>
1

>  <RF_canvas>
1

>  <DNN_canvas>
1

$$$$
3S7L_5164
  MOE2015           3D

 46 49  0  0  1  0  0  0  0  0999 V2000
   16.6230   10.9890   21.4690 C   0  0  0  0  0  0  0  0  0  0  0  0
   15.6480   11.4440   21.2950 H   0  0  0  0  0  0  0  0  0  0  0  0
   16.9540   11.2150   22.4820 H   0  0  0  0  0  0  0  0  0  0  0  0
   16.5480    9.9090   21.3440 H   0  0  0  0  0  0  0  0  0  0  0  0
   18.9020   10.9230   20.7310 N   0  0  0  0  0  0  0  0  0  0  0  0
   22.2720   12.9270   22.7600 O   0  0  0  0  0  0  0  0  0  0  0  0
   17.6230   11.5440   20.4750 C   0  0  0  0  0  0  0  0  0  0  0  0
   17.7050   12.6240   20.5980 H   0  0  0  0  0  0  0  0  0  0  0  0
   17.2990   11.3170   19.4590 H   0  0  0  0  0  0  0  0  0  0  0  0
   19.1230    9.6740   20.3070 N   0  0  0  0  0  0  0  0  0  0  0  0
   19.9550   11.4720   21.3840 C   0  0  0  0  0  0  0  0  0  0  0  0
   20.0090   12.4590   21.8180 H   0  0  0  0  0  0  0  0  0  0  0  0
   22.7900   11.1750   24.1580 N   0  0  0  0  0  0  0  0  0  0  0  0
   20.9380   10.5140   21.3800 C   0  0  0  0  0  0  0  0  0  0  0  0
   22.4690    9.3930   22.8380 N   0  0  0  0  0  0  0  0  0  0  0  0
   20.3610    9.4240   20.7010 C   0  0  0  0  0  0  0  0  0  0  0  0
   20.8710    8.4890   20.5220 H   0  0  0  0  0  0  0  0  0  0  0  0
   22.8120    9.0120   25.0300 N   0  0  0  0  0  0  0  0  0  0  0  0
   22.4800    8.0650   24.9150 H   0  0  0  0  0  0  0  0  0  0  0  0
   23.1100    9.3350   25.9390 H   0  0  0  0  0  0  0  0  0  0  0  0
   22.2970   10.5960   21.9830 C   0  0  3  0  0  0  0  0  0  0  0  0
   28.9400    9.6760   21.8070 N   0  0  0  0  0  0  0  0  0  0  0  0
   22.4290   11.7400   22.9820 C   0  0  0  0  0  0  0  0  0  0  0  0
   29.3350   11.8070   20.8130 N   0  0  0  0  0  0  0  0  0  0  0  0
   22.8560    9.8370   23.9800 C   0  0  0  0  0  0  0  0  0  0  0  0
   23.0170   11.9520   25.3510 C   0  0  0  0  0  0  0  0  0  0  0  0
   22.8760   13.0100   25.1280 H   0  0  0  0  0  0  0  0  0  0  0  0
   24.0350   11.7870   25.7040 H   0  0  0  0  0  0  0  0  0  0  0  0
   22.3110   11.6460   26.1230 H   0  0  0  0  0  0  0  0  0  0  0  0
   23.3350   10.8070   20.8720 C   0  0  0  0  0  0  0  0  0  0  0  0
   22.9920   11.0920   19.5340 C   0  0  0  0  0  0  0  0  0  0  0  0
   21.9520   11.1680   19.2540 H   0  0  0  0  0  0  0  0  0  0  0  0
   23.9790   11.2760   18.5700 C   0  0  0  0  0  0  0  0  0  0  0  0
   23.7000   11.4870   17.5480 H   0  0  0  0  0  0  0  0  0  0  0  0
   25.3240   11.1890   18.9180 C   0  0  0  0  0  0  0  0  0  0  0  0
   26.0810   11.3390   18.1620 H   0  0  0  0  0  0  0  0  0  0  0  0
   25.7110   10.9080   20.2410 C   0  0  0  0  0  0  0  0  0  0  0  0
   24.7010   10.7290   21.1920 C   0  0  0  0  0  0  0  0  0  0  0  0
   24.9830   10.5220   22.2140 H   0  0  0  0  0  0  0  0  0  0  0  0
   27.1120   10.8280   20.6810 C   0  0  0  0  0  0  0  0  0  0  0  0
   27.6460    9.7590   21.3920 C   0  0  0  0  0  0  0  0  0  0  0  0
   26.9880    8.9370   21.6320 H   0  0  0  0  0  0  0  0  0  0  0  0
   29.7290   10.7180   21.4930 C   0  0  0  0  0  0  0  0  0  0  0  0
   30.7600   10.6760   21.8120 H   0  0  0  0  0  0  0  0  0  0  0  0
   28.0330   11.8330   20.4260 C   0  0  0  0  0  0  0  0  0  0  0  0
   27.6900   12.6990   19.8800 H   0  0  0  0  0  0  0  0  0  0  0  0
  1  2  1  0  0  0  0
  1  3  1  0  0  0  0
  1  4  1  0  0  0  0
  1  7  1  0  0  0  0
  5  7  1  0  0  0  0
  5 10  1  0  0  0  0
  5 11  1  0  0  0  0
  6 23  2  0  0  0  0
  7  8  1  0  0  0  0
  7  9  1  0  0  0  0
 10 16  2  0  0  0  0
 11 12  1  0  0  0  0
 11 14  2  0  0  0  0
 13 23  1  0  0  0  0
 13 25  1  0  0  0  0
 13 26  1  0  0  0  0
 14 16  1  0  0  0  0
 14 21  1  0  0  0  0
 15 21  1  0  0  0  0
 15 25  2  0  0  0  0
 16 17  1  0  0  0  0
 18 19  1  0  0  0  0
 18 20  1  0  0  0  0
 18 25  1  0  0  0  0
 21 23  1  0  0  0  0
 21 30  1  0  0  0  0
 22 41  2  0  0  0  0
 22 43  1  0  0  0  0
 24 43  2  0  0  0  0
 24 45  1  0  0  0  0
 26 27  1  0  0  0  0
 26 28  1  0  0  0  0
 26 29  1  0  0  0  0
 30 31  1  0  0  0  0
 30 38  2  0  0  0  0
 31 32  1  0  0  0  0
 31 33  2  0  0  0  0
 33 34  1  0  0  0  0
 33 35  1  0  0  0  0
 35 36  1  0  0  0  0
 35 37  2  0  0  0  0
 37 38  1  0  0  0  0
 37 40  1  0  0  0  0
 38 39  1  0  0  0  0
 40 41  1  0  0  0  0
 40 45  2  0  0  0  0
 41 42  1  0  0  0  0
 43 44  1  0  0  0  0
 45 46  1  0  0  0  0
M  END
>  <PARENT_CMPD_ID>
3S7L

>  <STANDARD_TYPE>
IC50

>  <RELATION>
=

>  <STANDARD_VALUE>
0.079999998

>  <STANDARD_UNITS>
uM

>  <COMPOUND_KEY>
28

>  <PUBMED_ID>
21835615

>  <JOURNAL>
Bioorg.Med.Chem.Lett.

>  <YEAR>
2011

>  <VOLUME>
21

>  <FIRST_PAGE>
5164

>  <Company>
Pfizer

>  <Resolution>
2.1600001

>  <idx>
95

>  <Model>
Train

>  <target>
7.09691

>  <des_pred_mlr>
5.9737501

>  <RF_Canvas>
7.0883451

>  <DNN_Canvas>
7.1136184

>  <pred_CoMFA>
7.5928001

>  <pred_COMSIA>
6.8186998

>  <pred_abm5>
7.3293071

>  <pred_ff8>
6.2087336

>  <pred_gau6>
7.08461

>  <CID>
BACE_95

>  <active>
1

>  <des_class_bayes>
1

>  <maacs_class_bayes>
1

>  <radial_class_bayes>
1

>  <dend_class_bayes>
1

>  <molprint_class_bayes>
1

>  <RF_canvas>
1

>  <DNN_canvas>
1

$$$$
4LXM_5300
  MOE2015           3D

 71 73  0  0  1  0  0  0  0  0999 V2000
   29.5080   12.9960   21.6990 F   0  0  0  0  0  0  0  0  0  0  0  0
   28.8700   12.7180   20.5340 C   0  0  0  0  0  0  0  0  0  0  0  0
   27.9150   13.6650   20.3630 F   0  0  0  0  0  0  0  0  0  0  0  0
   29.7440   12.7940   19.4930 F   0  0  0  0  0  0  0  0  0  0  0  0
   28.2000   11.3180   20.6040 C   0  0  0  0  0  0  0  0  0  0  0  0
   27.3980   11.0760   19.4280 O   0  0  0  0  0  0  0  0  0  0  0  0
   26.0070   11.1230   19.5100 C   0  0  0  0  0  0  0  0  0  0  0  0
   25.3020   11.9290   18.5800 C   0  0  0  0  0  0  0  0  0  0  0  0
   23.8850   11.9960   18.6450 C   0  0  0  0  0  0  0  0  0  0  0  0
   23.1760   11.2710   19.6360 C   0  0  0  0  0  0  0  0  0  0  0  0
   23.8890   10.4730   20.5710 C   0  0  0  0  0  0  0  0  0  0  0  0
   25.2970   10.3960   20.4990 C   0  0  0  0  0  0  0  0  0  0  0  0
   23.1720    9.6940   21.6880 C   0  0  0  0  0  0  0  0  0  0  0  0
   22.6530   10.6420   22.8330 C   0  0  3  0  0  0  0  0  0  0  0  0
   22.0590    9.9050   24.0800 C   0  0  3  0  0  0  0  0  0  0  0  0
   21.4960   10.8850   25.1640 C   0  0  3  0  0  0  0  0  0  0  0  0
   22.5040   11.9630   25.6650 C   0  0  0  0  0  0  0  0  0  0  0  0
   23.0420   12.9550   24.2700 S   0  0  0  0  0  0  0  0  0  0  0  0
   23.7610   11.6530   23.2820 C   0  0  0  0  0  0  0  0  0  0  0  0
   24.1770   13.8030   24.7560 O   0  0  0  0  0  0  0  0  0  0  0  0
   20.8300   10.1890   26.3010 N   0  3  0  0  0  0  0  0  0  0  0  0
   19.8940   10.9110   27.2230 C   0  0  0  0  0  0  0  0  0  0  0  0
   18.8040   11.6300   26.3990 C   0  0  0  0  0  0  0  0  0  0  0  0
   17.8440   10.8600   25.7020 C   0  0  0  0  0  0  0  0  0  0  0  0
   16.8150   11.4410   24.9120 C   0  0  0  0  0  0  0  0  0  0  0  0
   16.7960   12.8640   24.8570 C   0  0  0  0  0  0  0  0  0  0  0  0
   17.7420   13.6610   25.5470 C   0  0  0  0  0  0  0  0  0  0  0  0
   18.7510   13.0450   26.3220 C   0  0  0  0  0  0  0  0  0  0  0  0
   15.7860   10.5320   24.1550 C   0  0  0  0  0  0  0  0  0  0  0  0
   15.2190    9.4480   25.1170 C   0  0  0  0  0  0  0  0  0  0  0  0
   14.5590   11.2980   23.5560 C   0  0  0  0  0  0  0  0  0  0  0  0
   16.4810    9.8050   22.9580 C   0  0  0  0  0  0  0  0  0  0  0  0
   20.9620    9.0400   23.7270 O   0  0  0  0  0  0  0  0  0  0  0  0
   23.2200   12.7480   17.7720 F   0  0  0  0  0  0  0  0  0  0  0  0
   25.9800   12.6320   17.6430 N   0  0  0  0  0  0  0  0  0  0  0  0
   29.1650   10.1120   20.7150 C   0  0  0  0  0  0  0  0  0  0  0  0
   30.0470   10.2910   21.7310 F   0  0  0  0  0  0  0  0  0  0  0  0
   29.8330    9.9360   19.5510 F   0  0  0  0  0  0  0  0  0  0  0  0
   28.4600    8.9780   20.9670 F   0  0  0  0  0  0  0  0  0  0  0  0
   27.6170   11.3710   21.5240 H   0  0  0  0  0  0  0  0  0  0  0  0
   22.0980   11.3250   19.6800 H   0  0  0  0  0  0  0  0  0  0  0  0
   25.8370    9.7790   21.2020 H   0  0  0  0  0  0  0  0  0  0  0  0
   23.8690    8.9740   22.1170 H   0  0  0  0  0  0  0  0  0  0  0  0
   22.3220    9.1650   21.2570 H   0  0  0  0  0  0  0  0  0  0  0  0
   21.8210   11.1820   22.3820 H   0  0  0  0  0  0  0  0  0  0  0  0
   22.9020    9.3400   24.4770 H   0  0  0  0  0  0  0  0  0  0  0  0
   20.7260   11.4370   24.6240 H   0  0  0  0  0  0  0  0  0  0  0  0
   23.3660   11.4740   26.1190 H   0  0  0  0  0  0  0  0  0  0  0  0
   22.0180   12.6020   26.4020 H   0  0  0  0  0  0  0  0  0  0  0  0
   24.2310   12.0880   22.4000 H   0  0  0  0  0  0  0  0  0  0  0  0
   24.5120   11.1260   23.8710 H   0  0  0  0  0  0  0  0  0  0  0  0
   21.5700    9.8170   26.8800 H   0  0  0  0  0  0  0  0  0  0  0  0
   20.3020    9.4270   25.8990 H   0  0  0  0  0  0  0  0  0  0  0  0
   20.4520   11.6450   27.8040 H   0  0  0  0  0  0  0  0  0  0  0  0
   19.4250   10.1940   27.8970 H   0  0  0  0  0  0  0  0  0  0  0  0
   17.8950    9.7840   25.7730 H   0  0  0  0  0  0  0  0  0  0  0  0
   16.0340   13.3530   24.2690 H   0  0  0  0  0  0  0  0  0  0  0  0
   17.6920   14.7380   25.4810 H   0  0  0  0  0  0  0  0  0  0  0  0
   19.4750   13.6470   26.8510 H   0  0  0  0  0  0  0  0  0  0  0  0
   14.7290    9.9320   25.9610 H   0  0  0  0  0  0  0  0  0  0  0  0
   16.0340    8.8220   25.4800 H   0  0  0  0  0  0  0  0  0  0  0  0
   14.4970    8.8300   24.5830 H   0  0  0  0  0  0  0  0  0  0  0  0
   14.0360   11.8260   24.3530 H   0  0  0  0  0  0  0  0  0  0  0  0
   13.8810   10.5860   23.0850 H   0  0  0  0  0  0  0  0  0  0  0  0
   14.9060   12.0150   22.8120 H   0  0  0  0  0  0  0  0  0  0  0  0
   17.3470    9.2530   23.3220 H   0  0  0  0  0  0  0  0  0  0  0  0
   16.8030   10.5420   22.2220 H   0  0  0  0  0  0  0  0  0  0  0  0
   15.7770    9.1130   22.4950 H   0  0  0  0  0  0  0  0  0  0  0  0
   20.2550    9.5920   23.3860 H   0  0  0  0  0  0  0  0  0  0  0  0
   25.4780   13.2090   16.9840 H   0  0  0  0  0  0  0  0  0  0  0  0
   26.9880   12.5790   17.6030 H   0  0  0  0  0  0  0  0  0  0  0  0
  1  2  1  0  0  0  0
  2  3  1  0  0  0  0
  2  4  1  0  0  0  0
  2  5  1  0  0  0  0
  5  6  1  0  0  0  0
  5 36  1  0  0  0  0
  5 40  1  0  0  0  0
  6  7  1  0  0  0  0
  7  8  1  0  0  0  0
  7 12  2  0  0  0  0
  8  9  2  0  0  0  0
  8 35  1  0  0  0  0
  9 10  1  0  0  0  0
  9 34  1  0  0  0  0
 10 11  2  0  0  0  0
 10 41  1  0  0  0  0
 11 12  1  0  0  0  0
 11 13  1  0  0  0  0
 12 42  1  0  0  0  0
 13 14  1  0  0  0  0
 13 43  1  0  0  0  0
 13 44  1  0  0  0  0
 14 15  1  0  0  0  0
 14 19  1  0  0  0  0
 14 45  1  0  0  0  0
 15 16  1  0  0  0  0
 15 33  1  0  0  0  0
 15 46  1  0  0  0  0
 16 17  1  0  0  0  0
 16 21  1  0  0  0  0
 16 47  1  0  0  0  0
 17 18  1  0  0  0  0
 17 48  1  0  0  0  0
 17 49  1  0  0  0  0
 18 19  1  0  0  0  0
 18 20  2  0  0  0  0
 19 50  1  0  0  0  0
 19 51  1  0  0  0  0
 21 22  1  0  0  0  0
 21 52  1  0  0  0  0
 21 53  1  0  0  0  0
 22 23  1  0  0  0  0
 22 54  1  0  0  0  0
 22 55  1  0  0  0  0
 23 24  1  0  0  0  0
 23 28  2  0  0  0  0
 24 25  2  0  0  0  0
 24 56  1  0  0  0  0
 25 26  1  0  0  0  0
 25 29  1  0  0  0  0
 26 27  2  0  0  0  0
 26 57  1  0  0  0  0
 27 28  1  0  0  0  0
 27 58  1  0  0  0  0
 28 59  1  0  0  0  0
 29 30  1  0  0  0  0
 29 31  1  0  0  0  0
 29 32  1  0  0  0  0
 30 60  1  0  0  0  0
 30 61  1  0  0  0  0
 30 62  1  0  0  0  0
 31 63  1  0  0  0  0
 31 64  1  0  0  0  0
 31 65  1  0  0  0  0
 32 66  1  0  0  0  0
 32 67  1  0  0  0  0
 32 68  1  0  0  0  0
 33 69  1  0  0  0  0
 35 70  1  0  0  0  0
 35 71  1  0  0  0  0
 36 37  1  0  0  0  0
 36 38  1  0  0  0  0
 36 39  1  0  0  0  0
M  CHG  1  21   1
M  END
>  <PARENT_CMPD_ID>
4LXM

>  <STANDARD_TYPE>
IC50

>  <RELATION>
=

>  <STANDARD_VALUE>
0.088

>  <STANDARD_UNITS>
uM

>  <COMPOUND_KEY>
12a

>  <PUBMED_ID>
23981898

>  <JOURNAL>
Bioorg.Med.Chem.Lett.

>  <YEAR>
2013

>  <VOLUME>
23

>  <FIRST_PAGE>
5300

>  <Company>
Novartis

>  <Resolution>
2.3

>  <idx>
96

>  <Model>
Train

>  <target>
7.0555172

>  <des_pred_mlr>
7.39189

>  <RF_Canvas>
7.8773112

>  <DNN_Canvas>
7.847146

>  <pred_CoMFA>
7.6348

>  <pred_COMSIA>
7.1307001

>  <pred_abm5>
7.2013621

>  <pred_ff8>
7.3931308

>  <pred_gau6>
7.7374592

>  <CID>
BACE_96

>  <active>
1

>  <des_class_bayes>
1

>  <maacs_class_bayes>
1

>  <radial_class_bayes>
1

>  <dend_class_bayes>
1

>  <molprint_class_bayes>
1

>  <RF_canvas>
1

>  <DNN_canvas>
1

$$$$
4JPC_3379
  MOE2015           3D

 47 50  0  0  1  0  0  0  0  0999 V2000
   25.0750   11.1430   19.9250 C   0  0  0  0  0  0  0  0  0  0  0  0
   24.5960   11.2170   18.5930 C   0  0  0  0  0  0  0  0  0  0  0  0
   23.2070   11.1710   18.3320 C   0  0  0  0  0  0  0  0  0  0  0  0
   22.2930   11.0450   19.4070 C   0  0  0  0  0  0  0  0  0  0  0  0
   22.7640   10.9630   20.7440 C   0  0  0  0  0  0  0  0  0  0  0  0
   24.1530   11.0210   20.9960 C   0  0  0  0  0  0  0  0  0  0  0  0
   20.9520   10.9880   19.1320 O   0  0  0  0  0  0  0  0  0  0  0  0
   19.9950   10.4790   20.0650 C   0  0  0  0  0  0  0  0  0  0  0  0
   20.3080   11.0050   21.4880 C   0  0  0  0  0  0  0  0  0  0  0  0
   21.7810   10.8520   21.9180 C   0  0  3  0  0  0  0  0  0  0  0  0
   22.1500   11.9250   22.9590 C   0  0  0  0  0  0  0  0  0  0  0  0
   22.5580   11.2950   24.0820 N   0  0  0  0  0  0  0  0  0  0  0  0
   22.4370    9.9510   23.8770 C   0  0  0  0  0  0  0  0  0  0  0  0
   21.9800    9.6400   22.7120 N   0  0  0  0  0  0  0  0  0  0  0  0
   26.4580   11.2090   20.2110 C   0  0  0  0  0  0  0  0  0  0  0  0
   23.0610   11.9720   25.2790 C   0  0  0  0  0  0  0  0  0  0  0  0
   22.7380    9.0740   24.9080 N   0  0  0  0  0  0  0  0  0  0  0  0
   27.0130   10.4410   21.2630 C   0  0  0  0  0  0  0  0  0  0  0  0
   28.3960   10.5360   21.5510 C   0  0  0  0  0  0  0  0  0  0  0  0
   29.2330   11.4010   20.8010 C   0  0  0  0  0  0  0  0  0  0  0  0
   28.6790   12.1780   19.7540 C   0  0  0  0  0  0  0  0  0  0  0  0
   27.2950   12.0850   19.4670 C   0  0  0  0  0  0  0  0  0  0  0  0
   22.1900   13.1380   22.7270 O   0  0  0  0  0  0  0  0  0  0  0  0
   18.6150   10.9890   19.5950 C   0  0  0  0  0  0  0  0  0  0  0  0
   19.9920    8.9310   20.0610 C   0  0  0  0  0  0  0  0  0  0  0  0
   28.9640    9.7670   22.6350 C   0  0  0  0  0  0  0  0  0  0  0  0
   29.3960    9.1330   23.5000 N   0  0  0  0  0  0  0  0  0  0  0  0
   25.2940   11.3090   17.7740 H   0  0  0  0  0  0  0  0  0  0  0  0
   22.8440   11.2320   17.3170 H   0  0  0  0  0  0  0  0  0  0  0  0
   24.5160   10.9720   22.0120 H   0  0  0  0  0  0  0  0  0  0  0  0
   19.6880   10.4570   22.1970 H   0  0  0  0  0  0  0  0  0  0  0  0
   20.0510   12.0640   21.5230 H   0  0  0  0  0  0  0  0  0  0  0  0
   23.0300   13.0510   25.1260 H   0  0  0  0  0  0  0  0  0  0  0  0
   24.0890   11.6610   25.4670 H   0  0  0  0  0  0  0  0  0  0  0  0
   22.4390   11.7080   26.1340 H   0  0  0  0  0  0  0  0  0  0  0  0
   22.6030    8.0810   24.7820 H   0  0  0  0  0  0  0  0  0  0  0  0
   23.0930    9.4280   25.7850 H   0  0  0  0  0  0  0  0  0  0  0  0
   26.3830    9.7840   21.8440 H   0  0  0  0  0  0  0  0  0  0  0  0
   30.2870   11.4670   21.0270 H   0  0  0  0  0  0  0  0  0  0  0  0
   29.3090   12.8390   19.1770 H   0  0  0  0  0  0  0  0  0  0  0  0
   26.8710   12.6850   18.6750 H   0  0  0  0  0  0  0  0  0  0  0  0
   18.6110   12.0790   19.5960 H   0  0  0  0  0  0  0  0  0  0  0  0
   17.8430   10.6220   20.2710 H   0  0  0  0  0  0  0  0  0  0  0  0
   18.4180   10.6260   18.5870 H   0  0  0  0  0  0  0  0  0  0  0  0
   20.9640    8.5650   20.3920 H   0  0  0  0  0  0  0  0  0  0  0  0
   19.7920    8.5710   19.0520 H   0  0  0  0  0  0  0  0  0  0  0  0
   19.2180    8.5670   20.7360 H   0  0  0  0  0  0  0  0  0  0  0  0
  1  2  1  0  0  0  0
  1  6  2  0  0  0  0
  1 15  1  0  0  0  0
  2  3  2  0  0  0  0
  2 28  1  0  0  0  0
  3  4  1  0  0  0  0
  3 29  1  0  0  0  0
  4  5  2  0  0  0  0
  4  7  1  0  0  0  0
  5  6  1  0  0  0  0
  5 10  1  0  0  0  0
  6 30  1  0  0  0  0
  7  8  1  0  0  0  0
  8  9  1  0  0  0  0
  8 24  1  0  0  0  0
  8 25  1  0  0  0  0
  9 10  1  0  0  0  0
  9 31  1  0  0  0  0
  9 32  1  0  0  0  0
 10 11  1  0  0  0  0
 10 14  1  0  0  0  0
 11 12  1  0  0  0  0
 11 23  2  0  0  0  0
 12 13  1  0  0  0  0
 12 16  1  0  0  0  0
 13 14  2  0  0  0  0
 13 17  1  0  0  0  0
 15 18  1  0  0  0  0
 15 22  2  0  0  0  0
 16 33  1  0  0  0  0
 16 34  1  0  0  0  0
 16 35  1  0  0  0  0
 17 36  1  0  0  0  0
 17 37  1  0  0  0  0
 18 19  2  0  0  0  0
 18 38  1  0  0  0  0
 19 20  1  0  0  0  0
 19 26  1  0  0  0  0
 20 21  2  0  0  0  0
 20 39  1  0  0  0  0
 21 22  1  0  0  0  0
 21 40  1  0  0  0  0
 22 41  1  0  0  0  0
 24 42  1  0  0  0  0
 24 43  1  0  0  0  0
 24 44  1  0  0  0  0
 25 45  1  0  0  0  0
 25 46  1  0  0  0  0
 25 47  1  0  0  0  0
 26 27  3  0  0  0  0
M  END
>  <PARENT_CMPD_ID>
4JPC

>  <STANDARD_TYPE>
IC50

>  <RELATION>
=

>  <STANDARD_VALUE>
0.093999997

>  <STANDARD_UNITS>
uM

>  <COMPOUND_KEY>
13

>  <PUBMED_ID>
23537249

>  <JOURNAL>
J.Med.Chem.

>  <YEAR>
2013

>  <VOLUME>
56

>  <FIRST_PAGE>
3379

>  <Company>
Array

>  <Resolution>
1.8

>  <idx>
97

>  <Model>
Train

>  <target>
7.0268722

>  <des_pred_mlr>
7.1289902

>  <RF_Canvas>
7.1041374

>  <DNN_Canvas>
7.2831163

>  <pred_CoMFA>
6.8049998

>  <pred_COMSIA>
6.7354002

>  <pred_abm5>
6.9919643

>  <pred_ff8>
6.0274062

>  <pred_gau6>
7.0553474

>  <CID>
BACE_97

>  <active>
1

>  <des_class_bayes>
0

>  <maacs_class_bayes>
0

>  <radial_class_bayes>
1

>  <dend_class_bayes>
1

>  <molprint_class_bayes>
1

>  <RF_canvas>
1

>  <DNN_canvas>
1

$$$$
3OHF_537
  MOE2015           3D

 91 94  0  0  1  0  0  0  0  0999 V2000
   25.1590   12.0350   18.7810 C   0  0  0  0  0  0  0  0  0  0  0  0
   25.0500   17.0670   25.8500 C   0  0  0  0  0  0  0  0  0  0  0  0
   24.0110   12.6710   19.2490 C   0  0  0  0  0  0  0  0  0  0  0  0
   25.5470   10.7930   19.2990 C   0  0  0  0  0  0  0  0  0  0  0  0
   26.4010   17.2920   25.5850 C   0  0  0  0  0  0  0  0  0  0  0  0
   16.8310   13.1870   25.3830 C   0  0  0  0  0  0  0  0  0  0  0  0
   24.3930   15.9680   25.2910 C   0  0  0  0  0  0  0  0  0  0  0  0
   23.2420   12.0500   20.2470 C   0  0  0  0  0  0  0  0  0  0  0  0
   24.7770   10.1860   20.2900 C   0  0  0  0  0  0  0  0  0  0  0  0
   17.9040   12.8410   26.2130 C   0  0  0  0  0  0  0  0  0  0  0  0
   27.1120   16.4230   24.7520 C   0  0  0  0  0  0  0  0  0  0  0  0
   16.1900   12.2080   24.6210 C   0  0  0  0  0  0  0  0  0  0  0  0
   17.6710   10.5390   25.5240 C   0  0  0  0  0  0  0  0  0  0  0  0
   25.8710   13.5120   23.0840 C   0  0  0  0  0  0  0  0  0  0  0  0
   25.0910   15.0950   24.4540 C   0  0  0  0  0  0  0  0  0  0  0  0
   24.7390   13.9390   23.7560 C   0  0  0  0  0  0  0  0  0  0  0  0
   23.6210   10.8090   20.7700 C   0  0  0  0  0  0  0  0  0  0  0  0
   18.3220   11.5140   26.2850 C   0  0  0  0  0  0  0  0  0  0  0  0
   26.4430   15.3290   24.1920 C   0  0  0  0  0  0  0  0  0  0  0  0
   16.6140   10.8790   24.6880 C   0  0  0  0  0  0  0  0  0  0  0  0
   23.4350   13.2330   23.6200 C   0  0  0  0  0  0  0  0  0  0  0  0
   28.1650   14.2470   22.9480 C   0  0  0  0  0  0  0  0  0  0  0  0
   29.0600   17.8840   20.1160 C   0  0  0  0  0  0  0  0  0  0  0  0
   28.7970    9.3410   21.8620 C   0  0  0  0  0  0  0  0  0  0  0  0
   15.5280   10.2460   22.6680 C   0  0  0  0  0  0  0  0  0  0  0  0
   22.7980   10.1310   21.8520 C   0  0  0  0  0  0  0  0  0  0  0  0
   19.4840   11.1200   27.1670 C   0  0  0  0  0  0  0  0  0  0  0  0
   28.3040   16.7110   20.7430 C   0  0  0  0  0  0  0  0  0  0  0  0
   29.4340   10.6650   22.2740 C   0  0  0  0  0  0  0  0  0  0  0  0
   28.3510   15.4840   19.8280 C   0  0  0  0  0  0  0  0  0  0  0  0
   29.4450   11.6200   21.0860 C   0  0  0  0  0  0  0  0  0  0  0  0
   27.7210   14.2390   20.4740 C   0  0  0  0  0  0  0  0  0  0  0  0
   29.6660   13.0790   21.4940 C   0  0  0  0  0  0  0  0  0  0  0  0
   21.1070   11.1800   25.2680 C   0  0  0  0  0  0  0  0  0  0  0  0
   22.3660   11.0260   23.0380 C   0  0  3  0  0  0  0  0  0  0  0  0
   21.8450   10.2730   24.2730 C   0  0  3  0  0  0  0  0  0  0  0  0
   26.8910   14.3630   23.3450 N   0  0  0  0  0  0  0  0  0  0  0  0
   23.4910   11.9240   23.3040 N   0  0  0  0  0  0  0  0  0  0  0  0
   20.5470   10.3800   26.3990 N   0  3  0  0  0  0  0  0  0  0  0  0
   28.4100   13.7990   21.7010 N   0  0  0  0  0  0  0  0  0  0  0  0
   22.3810   13.8330   23.7520 O   0  0  0  0  0  0  0  0  0  0  0  0
   28.9060   14.0670   23.9050 O   0  0  0  0  0  0  0  0  0  0  0  0
   20.9450    9.2590   23.8220 O   0  0  0  0  0  0  0  0  0  0  0  0
   16.0230    9.9120   23.9830 O   0  0  0  0  0  0  0  0  0  0  0  0
   25.7550   12.5040   18.0120 H   0  0  0  0  0  0  0  0  0  0  0  0
   24.5090   17.7470   26.4910 H   0  0  0  0  0  0  0  0  0  0  0  0
   23.7160   13.6300   18.8490 H   0  0  0  0  0  0  0  0  0  0  0  0
   26.4390   10.3070   18.9320 H   0  0  0  0  0  0  0  0  0  0  0  0
   26.9000   18.1420   26.0260 H   0  0  0  0  0  0  0  0  0  0  0  0
   16.4980   14.2130   25.3320 H   0  0  0  0  0  0  0  0  0  0  0  0
   23.3490   15.7940   25.5050 H   0  0  0  0  0  0  0  0  0  0  0  0
   22.3500   12.5350   20.6140 H   0  0  0  0  0  0  0  0  0  0  0  0
   25.0750    9.2280   20.6900 H   0  0  0  0  0  0  0  0  0  0  0  0
   18.4060   13.6000   26.7950 H   0  0  0  0  0  0  0  0  0  0  0  0
   28.1580   16.5930   24.5450 H   0  0  0  0  0  0  0  0  0  0  0  0
   15.3650   12.4790   23.9790 H   0  0  0  0  0  0  0  0  0  0  0  0
   17.9930    9.5100   25.5860 H   0  0  0  0  0  0  0  0  0  0  0  0
   25.9310   12.6390   22.4520 H   0  0  0  0  0  0  0  0  0  0  0  0
   29.0130   18.7450   20.7830 H   0  0  0  0  0  0  0  0  0  0  0  0
   28.6040   18.1410   19.1600 H   0  0  0  0  0  0  0  0  0  0  0  0
   30.1010   17.6030   19.9580 H   0  0  0  0  0  0  0  0  0  0  0  0
   28.7910    8.6600   22.7130 H   0  0  0  0  0  0  0  0  0  0  0  0
   29.3720    8.8990   21.0480 H   0  0  0  0  0  0  0  0  0  0  0  0
   27.7740    9.5180   21.5300 H   0  0  0  0  0  0  0  0  0  0  0  0
   15.0750    9.3640   22.2160 H   0  0  0  0  0  0  0  0  0  0  0  0
   16.3540   10.5900   22.0450 H   0  0  0  0  0  0  0  0  0  0  0  0
   14.7820   11.0360   22.7510 H   0  0  0  0  0  0  0  0  0  0  0  0
   23.3890    9.3080   22.2540 H   0  0  0  0  0  0  0  0  0  0  0  0
   21.8950    9.7370   21.3860 H   0  0  0  0  0  0  0  0  0  0  0  0
   19.1170   10.4780   27.9680 H   0  0  0  0  0  0  0  0  0  0  0  0
   19.9220   12.0210   27.5960 H   0  0  0  0  0  0  0  0  0  0  0  0
   27.2650   16.9990   20.9020 H   0  0  0  0  0  0  0  0  0  0  0  0
   28.7620   16.4610   21.7000 H   0  0  0  0  0  0  0  0  0  0  0  0
   30.4570   10.4870   22.6060 H   0  0  0  0  0  0  0  0  0  0  0  0
   28.8590   11.1060   23.0880 H   0  0  0  0  0  0  0  0  0  0  0  0
   29.3920   15.2650   19.5910 H   0  0  0  0  0  0  0  0  0  0  0  0
   27.8100   15.7120   18.9100 H   0  0  0  0  0  0  0  0  0  0  0  0
   28.4870   11.5450   20.5710 H   0  0  0  0  0  0  0  0  0  0  0  0
   30.2460   11.3230   20.4090 H   0  0  0  0  0  0  0  0  0  0  0  0
   27.7500   13.4240   19.7510 H   0  0  0  0  0  0  0  0  0  0  0  0
   26.6850   14.4670   20.7230 H   0  0  0  0  0  0  0  0  0  0  0  0
   30.2310   13.5800   20.7080 H   0  0  0  0  0  0  0  0  0  0  0  0
   30.2380   13.1000   22.4220 H   0  0  0  0  0  0  0  0  0  0  0  0
   20.2930   11.6890   24.7520 H   0  0  0  0  0  0  0  0  0  0  0  0
   21.8040   11.9190   25.6630 H   0  0  0  0  0  0  0  0  0  0  0  0
   21.4780   11.5960   22.7640 H   0  0  0  0  0  0  0  0  0  0  0  0
   22.7060    9.8590   24.7980 H   0  0  0  0  0  0  0  0  0  0  0  0
   24.4130   11.5170   23.2440 H   0  0  0  0  0  0  0  0  0  0  0  0
   20.1440    9.5320   26.0260 H   0  0  0  0  0  0  0  0  0  0  0  0
   21.2980   10.1460   27.0320 H   0  0  0  0  0  0  0  0  0  0  0  0
   20.2180    9.6950   23.3720 H   0  0  0  0  0  0  0  0  0  0  0  0
  1  3  2  0  0  0  0
  1  4  1  0  0  0  0
  1 45  1  0  0  0  0
  2  5  2  0  0  0  0
  2  7  1  0  0  0  0
  2 46  1  0  0  0  0
  3  8  1  0  0  0  0
  3 47  1  0  0  0  0
  4  9  2  0  0  0  0
  4 48  1  0  0  0  0
  5 11  1  0  0  0  0
  5 49  1  0  0  0  0
  6 10  2  0  0  0  0
  6 12  1  0  0  0  0
  6 50  1  0  0  0  0
  7 15  2  0  0  0  0
  7 51  1  0  0  0  0
  8 17  2  0  0  0  0
  8 52  1  0  0  0  0
  9 17  1  0  0  0  0
  9 53  1  0  0  0  0
 10 18  1  0  0  0  0
 10 54  1  0  0  0  0
 11 19  2  0  0  0  0
 11 55  1  0  0  0  0
 12 20  2  0  0  0  0
 12 56  1  0  0  0  0
 13 18  2  0  0  0  0
 13 20  1  0  0  0  0
 13 57  1  0  0  0  0
 14 16  2  0  0  0  0
 14 37  1  0  0  0  0
 14 58  1  0  0  0  0
 15 16  1  0  0  0  0
 15 19  1  0  0  0  0
 16 21  1  0  0  0  0
 17 26  1  0  0  0  0
 18 27  1  0  0  0  0
 19 37  1  0  0  0  0
 20 44  1  0  0  0  0
 21 38  1  0  0  0  0
 21 41  2  0  0  0  0
 22 37  1  0  0  0  0
 22 40  1  0  0  0  0
 22 42  2  0  0  0  0
 23 28  1  0  0  0  0
 23 59  1  0  0  0  0
 23 60  1  0  0  0  0
 23 61  1  0  0  0  0
 24 29  1  0  0  0  0
 24 62  1  0  0  0  0
 24 63  1  0  0  0  0
 24 64  1  0  0  0  0
 25 44  1  0  0  0  0
 25 65  1  0  0  0  0
 25 66  1  0  0  0  0
 25 67  1  0  0  0  0
 26 35  1  0  0  0  0
 26 68  1  0  0  0  0
 26 69  1  0  0  0  0
 27 39  1  0  0  0  0
 27 70  1  0  0  0  0
 27 71  1  0  0  0  0
 28 30  1  0  0  0  0
 28 72  1  0  0  0  0
 28 73  1  0  0  0  0
 29 31  1  0  0  0  0
 29 74  1  0  0  0  0
 29 75  1  0  0  0  0
 30 32  1  0  0  0  0
 30 76  1  0  0  0  0
 30 77  1  0  0  0  0
 31 33  1  0  0  0  0
 31 78  1  0  0  0  0
 31 79  1  0  0  0  0
 32 40  1  0  0  0  0
 32 80  1  0  0  0  0
 32 81  1  0  0  0  0
 33 40  1  0  0  0  0
 33 82  1  0  0  0  0
 33 83  1  0  0  0  0
 34 36  1  0  0  0  0
 34 39  1  0  0  0  0
 34 84  1  0  0  0  0
 34 85  1  0  0  0  0
 35 36  1  0  0  0  0
 35 38  1  0  0  0  0
 35 86  1  0  0  0  0
 36 43  1  0  0  0  0
 36 87  1  0  0  0  0
 38 88  1  0  0  0  0
 39 89  1  0  0  0  0
 39 90  1  0  0  0  0
 43 91  1  0  0  0  0
M  CHG  1  39   1
M  END
>  <PARENT_CMPD_ID>
3OHF

>  <STANDARD_TYPE>
IC50

>  <RELATION>
=

>  <STANDARD_VALUE>
0.093999997

>  <STANDARD_UNITS>
uM

>  <COMPOUND_KEY>
6c

>  <PUBMED_ID>
21078556

>  <JOURNAL>
Bioorg.Med.Chem.Lett.

>  <YEAR>
2011

>  <VOLUME>
21

>  <FIRST_PAGE>
537

>  <Company>
BMS

>  <Resolution>
2.0999999

>  <idx>
98

>  <Model>
Train

>  <target>
7.0268722

>  <des_pred_mlr>
7.4060602

>  <RF_Canvas>
7.3117189

>  <DNN_Canvas>
7.1419344

>  <pred_CoMFA>
7.2797999

>  <pred_COMSIA>
8.3104

>  <pred_abm5>
7.2657466

>  <pred_ff8>
6.8269072

>  <pred_gau6>
7.6527095

>  <CID>
BACE_98

>  <active>
1

>  <des_class_bayes>
1

>  <maacs_class_bayes>
0

>  <radial_class_bayes>
1

>  <dend_class_bayes>
1

>  <molprint_class_bayes>
1

>  <RF_canvas>
1

>  <DNN_canvas>
1

$$$$
4BFD_4239
  MOE2015           3D

 45 48  0  0  1  0  0  0  0  0999 V2000
   32.2170    8.5060   24.2230 Cl  0  0  0  0  0  0  0  0  0  0  0  0
   31.0300    9.1580   23.0720 C   0  0  0  0  0  0  0  0  0  0  0  0
   29.7800    8.5740   23.0720 C   0  0  0  0  0  0  0  0  0  0  0  0
   28.8690    9.0260   22.2120 N   0  0  0  0  0  0  0  0  0  0  0  0
   31.3670   10.1960   22.1850 C   0  0  0  0  0  0  0  0  0  0  0  0
   30.3810   10.6350   21.3160 C   0  0  0  0  0  0  0  0  0  0  0  0
   29.1380   10.0060   21.3220 C   0  0  0  0  0  0  0  0  0  0  0  0
   28.0210   10.4760   20.4500 C   0  0  0  0  0  0  0  0  0  0  0  0
   28.2580   11.1260   19.4540 O   0  0  0  0  0  0  0  0  0  0  0  0
   26.7940   10.1420   20.8740 N   0  0  0  0  0  0  0  0  0  0  0  0
   25.5620   10.5270   20.3390 C   0  0  0  0  0  0  0  0  0  0  0  0
   25.4380   11.2160   19.1200 C   0  0  0  0  0  0  0  0  0  0  0  0
   24.1770   11.6340   18.7010 C   0  0  0  0  0  0  0  0  0  0  0  0
   23.0710   11.3750   19.5200 C   0  0  0  0  0  0  0  0  0  0  0  0
   21.8540   11.7900   19.1270 F   0  0  0  0  0  0  0  0  0  0  0  0
   24.4490   10.3010   21.1470 C   0  0  0  0  0  0  0  0  0  0  0  0
   23.1950   10.7130   20.7510 C   0  0  0  0  0  0  0  0  0  0  0  0
   21.9640   10.4400   21.6060 C   0  0  3  0  0  0  0  0  0  0  0  0
   20.9960    9.6420   20.7380 C   0  0  0  0  0  0  0  0  0  0  0  0
   21.3040   11.7500   22.0370 C   0  0  0  0  0  0  0  0  0  0  0  0
   21.6860   12.3500   23.3950 C   0  0  3  0  0  0  0  0  0  0  0  0
   23.1900   12.3620   23.6920 C   0  0  0  0  0  0  0  0  0  0  0  0
   22.2760   11.3770   24.4210 C   0  0  3  0  0  0  0  0  0  0  0  0
   22.5290    9.9710   23.9380 C   0  0  0  0  0  0  0  0  0  0  0  0
   22.2650    9.5990   22.7480 N   0  3  0  0  0  0  0  0  0  0  0  0
   23.0200    9.0630   24.7930 N   0  0  0  0  0  0  0  0  0  0  0  0
   29.5460    7.7690   23.7530 H   0  0  0  0  0  0  0  0  0  0  0  0
   32.3540   10.6330   22.1810 H   0  0  0  0  0  0  0  0  0  0  0  0
   30.5740   11.4560   20.6410 H   0  0  0  0  0  0  0  0  0  0  0  0
   26.7550    9.5360   21.6810 H   0  0  0  0  0  0  0  0  0  0  0  0
   26.3100   11.4190   18.5160 H   0  0  0  0  0  0  0  0  0  0  0  0
   24.0540   12.1490   17.7600 H   0  0  0  0  0  0  0  0  0  0  0  0
   24.5710    9.7970   22.0940 H   0  0  0  0  0  0  0  0  0  0  0  0
   20.7310   10.2270   19.8570 H   0  0  0  0  0  0  0  0  0  0  0  0
   20.0950    9.4180   21.3100 H   0  0  0  0  0  0  0  0  0  0  0  0
   21.4700    8.7110   20.4270 H   0  0  0  0  0  0  0  0  0  0  0  0
   20.2280   11.5780   22.0530 H   0  0  0  0  0  0  0  0  0  0  0  0
   21.5420   12.4950   21.2780 H   0  0  0  0  0  0  0  0  0  0  0  0
   20.8810   13.0840   23.4110 H   0  0  0  0  0  0  0  0  0  0  0  0
   23.6320   13.1980   24.2340 H   0  0  0  0  0  0  0  0  0  0  0  0
   23.8960   12.0000   22.9450 H   0  0  0  0  0  0  0  0  0  0  0  0
   22.0090   11.1340   25.4490 H   0  0  0  0  0  0  0  0  0  0  0  0
   22.2660    8.6030   22.5810 H   0  0  0  0  0  0  0  0  0  0  0  0
   23.1720    8.1120   24.4880 H   0  0  0  0  0  0  0  0  0  0  0  0
   23.2380    9.3300   25.7420 H   0  0  0  0  0  0  0  0  0  0  0  0
  1  2  1  0  0  0  0
  2  3  2  0  0  0  0
  2  5  1  0  0  0  0
  3  4  1  0  0  0  0
  3 27  1  0  0  0  0
  4  7  2  0  0  0  0
  5  6  2  0  0  0  0
  5 28  1  0  0  0  0
  6  7  1  0  0  0  0
  6 29  1  0  0  0  0
  7  8  1  0  0  0  0
  8  9  2  0  0  0  0
  8 10  1  0  0  0  0
 10 11  1  0  0  0  0
 10 30  1  0  0  0  0
 11 12  1  0  0  0  0
 11 16  2  0  0  0  0
 12 13  2  0  0  0  0
 12 31  1  0  0  0  0
 13 14  1  0  0  0  0
 13 32  1  0  0  0  0
 14 15  1  0  0  0  0
 14 17  2  0  0  0  0
 16 17  1  0  0  0  0
 16 33  1  0  0  0  0
 17 18  1  0  0  0  0
 18 19  1  0  0  0  0
 18 20  1  0  0  0  0
 18 25  1  0  0  0  0
 19 34  1  0  0  0  0
 19 35  1  0  0  0  0
 19 36  1  0  0  0  0
 20 21  1  0  0  0  0
 20 37  1  0  0  0  0
 20 38  1  0  0  0  0
 21 22  1  0  0  0  0
 21 23  1  0  0  0  0
 21 39  1  0  0  0  0
 22 23  1  0  0  0  0
 22 40  1  0  0  0  0
 22 41  1  0  0  0  0
 23 24  1  0  0  0  0
 23 42  1  0  0  0  0
 24 25  2  0  0  0  0
 24 26  1  0  0  0  0
 25 43  1  0  0  0  0
 26 44  1  0  0  0  0
 26 45  1  0  0  0  0
M  CHG  1  25   1
M  END
>  <PARENT_CMPD_ID>
4BFD

>  <STANDARD_TYPE>
IC50

>  <RELATION>
=

>  <STANDARD_VALUE>
0.096000001

>  <STANDARD_UNITS>
uM

>  <COMPOUND_KEY>
18

>  <PUBMED_ID>
23735744

>  <JOURNAL>
Bioorg.Med.Chem.Lett.

>  <YEAR>
2013

>  <VOLUME>
23

>  <FIRST_PAGE>
4239

>  <Company>
Roche

>  <Resolution>
2.3

>  <idx>
99

>  <Model>
Train

>  <target>
7.0177288

>  <des_pred_mlr>
6.5344901

>  <RF_Canvas>
6.7439618

>  <DNN_Canvas>
6.4213243

>  <pred_CoMFA>
6.4186001

>  <pred_COMSIA>
6.6708999

>  <pred_abm5>
6.4119778

>  <pred_ff8>
6.4800615

>  <pred_gau6>
6.8988523

>  <CID>
BACE_99

>  <active>
1

>  <des_class_bayes>
0

>  <maacs_class_bayes>
0

>  <radial_class_bayes>
1

>  <dend_class_bayes>
1

>  <molprint_class_bayes>
1

>  <RF_canvas>
1

>  <DNN_canvas>
0

$$$$
2B8V_641
  MOE2015           3D

 72 75  0  0  1  0  0  0  0  0999 V2000
   20.8240   11.8910   28.1010 C   0  0  0  0  0  0  0  0  0  0  0  0
   19.9820   11.1550   27.0420 C   0  0  0  0  0  0  0  0  0  0  0  0
   19.6490   11.1260   28.5090 C   0  0  0  0  0  0  0  0  0  0  0  0
   21.1290   10.6890   26.4260 N   0  3  0  0  0  0  0  0  0  0  0  0
   21.7770   11.2020   25.2590 C   0  0  0  0  0  0  0  0  0  0  0  0
   22.2260   10.1990   24.1850 C   0  0  3  0  0  0  0  0  0  0  0  0
   22.7820   10.9590   22.9630 C   0  0  3  0  0  0  0  0  0  0  0  0
   23.9870   11.6900   23.3710 N   0  0  0  0  0  0  0  0  0  0  0  0
   24.0280   13.0240   23.4930 C   0  0  0  0  0  0  0  0  0  0  0  0
   23.0060   13.7210   23.4620 O   0  0  0  0  0  0  0  0  0  0  0  0
   21.1960    9.4650   23.7670 O   0  0  0  0  0  0  0  0  0  0  0  0
   23.1610    9.9820   21.8410 C   0  0  0  0  0  0  0  0  0  0  0  0
   25.3810   13.5730   23.6670 C   0  0  0  0  0  0  0  0  0  0  0  0
   26.4910   13.1900   22.8390 C   0  0  0  0  0  0  0  0  0  0  0  0
   27.8030   13.7650   23.0180 C   0  0  0  0  0  0  0  0  0  0  0  0
   27.9670   14.7400   24.0570 C   0  0  0  0  0  0  0  0  0  0  0  0
   26.8730   15.1440   24.9220 C   0  0  0  0  0  0  0  0  0  0  0  0
   25.5890   14.5370   24.6920 C   0  0  0  0  0  0  0  0  0  0  0  0
   28.9790   13.4630   22.1510 C   0  0  0  0  0  0  0  0  0  0  0  0
   27.0000   16.0690   25.9520 N   0  0  0  0  0  0  0  0  0  0  0  0
   29.7850   14.3530   21.8800 O   0  0  0  0  0  0  0  0  0  0  0  0
   25.9410   17.0860   26.1990 C   0  0  0  0  0  0  0  0  0  0  0  0
   28.9680   10.8980   22.3310 C   0  0  0  0  0  0  0  0  0  0  0  0
   29.0520    9.6310   21.6410 C   0  0  0  0  0  0  0  0  0  0  0  0
   29.3930    9.6470   20.2310 C   0  0  0  0  0  0  0  0  0  0  0  0
   29.7990   10.8440   19.5190 C   0  0  0  0  0  0  0  0  0  0  0  0
   29.7060   12.1110   20.2150 C   0  0  0  0  0  0  0  0  0  0  0  0
   29.2140   12.1290   21.5900 C   0  0  0  0  0  0  0  0  0  0  0  0
   28.3980   16.3180   26.7570 S   0  0  0  0  0  0  0  0  0  0  0  0
   29.3530   17.5030   25.8100 C   0  0  0  0  0  0  0  0  0  0  0  0
   28.0680   16.9170   28.0040 O   0  0  0  0  0  0  0  0  0  0  0  0
   29.1410   15.1030   26.7680 O   0  0  0  0  0  0  0  0  0  0  0  0
   23.3630   11.9380   20.0830 C   0  0  0  0  0  0  0  0  0  0  0  0
   24.1220   12.5430   19.0080 C   0  0  0  0  0  0  0  0  0  0  0  0
   25.3300   11.8830   18.5680 C   0  0  0  0  0  0  0  0  0  0  0  0
   25.8200   10.6280   19.1240 C   0  0  0  0  0  0  0  0  0  0  0  0
   25.0670   10.0390   20.2140 C   0  0  0  0  0  0  0  0  0  0  0  0
   23.8570   10.6850   20.6860 C   0  0  0  0  0  0  0  0  0  0  0  0
   20.8090   12.9800   28.1490 H   0  0  0  0  0  0  0  0  0  0  0  0
   21.8220   11.5310   28.3500 H   0  0  0  0  0  0  0  0  0  0  0  0
   19.2340   11.0760   26.2530 H   0  0  0  0  0  0  0  0  0  0  0  0
   18.7640   11.6510   28.8700 H   0  0  0  0  0  0  0  0  0  0  0  0
   19.7780   10.2010   29.0720 H   0  0  0  0  0  0  0  0  0  0  0  0
   20.9240    9.7260   26.2010 H   0  0  0  0  0  0  0  0  0  0  0  0
   21.8370   10.7230   27.1460 H   0  0  0  0  0  0  0  0  0  0  0  0
   22.6650   11.7410   25.5910 H   0  0  0  0  0  0  0  0  0  0  0  0
   21.0860   11.8980   24.7840 H   0  0  0  0  0  0  0  0  0  0  0  0
   22.9880    9.5560   24.6250 H   0  0  0  0  0  0  0  0  0  0  0  0
   22.0160   11.6420   22.5960 H   0  0  0  0  0  0  0  0  0  0  0  0
   24.8250   11.1630   23.5690 H   0  0  0  0  0  0  0  0  0  0  0  0
   20.5480   10.0630   23.3870 H   0  0  0  0  0  0  0  0  0  0  0  0
   22.2540    9.5050   21.4680 H   0  0  0  0  0  0  0  0  0  0  0  0
   23.8300    9.2230   22.2460 H   0  0  0  0  0  0  0  0  0  0  0  0
   26.3400   12.4540   22.0630 H   0  0  0  0  0  0  0  0  0  0  0  0
   28.9380   15.1900   24.2010 H   0  0  0  0  0  0  0  0  0  0  0  0
   24.7560   14.8220   25.3180 H   0  0  0  0  0  0  0  0  0  0  0  0
   25.0530   16.8330   25.6200 H   0  0  0  0  0  0  0  0  0  0  0  0
   26.3040   18.0690   25.8980 H   0  0  0  0  0  0  0  0  0  0  0  0
   25.6920   17.1010   27.2600 H   0  0  0  0  0  0  0  0  0  0  0  0
   28.7260   10.9320   23.3830 H   0  0  0  0  0  0  0  0  0  0  0  0
   28.8670    8.7010   22.1590 H   0  0  0  0  0  0  0  0  0  0  0  0
   29.3420    8.7180   19.6820 H   0  0  0  0  0  0  0  0  0  0  0  0
   30.1590   10.7920   18.5020 H   0  0  0  0  0  0  0  0  0  0  0  0
   29.9960   13.0280   19.7250 H   0  0  0  0  0  0  0  0  0  0  0  0
   28.8200   18.4530   25.7740 H   0  0  0  0  0  0  0  0  0  0  0  0
   29.4950   17.1280   24.7960 H   0  0  0  0  0  0  0  0  0  0  0  0
   30.3240   17.6480   26.2830 H   0  0  0  0  0  0  0  0  0  0  0  0
   22.4510   12.3960   20.4370 H   0  0  0  0  0  0  0  0  0  0  0  0
   23.7940   13.4630   18.5470 H   0  0  0  0  0  0  0  0  0  0  0  0
   25.9040   12.3480   17.7800 H   0  0  0  0  0  0  0  0  0  0  0  0
   26.7110   10.1540   18.7380 H   0  0  0  0  0  0  0  0  0  0  0  0
   25.4060    9.1220   20.6730 H   0  0  0  0  0  0  0  0  0  0  0  0
  1  2  1  0  0  0  0
  1  3  1  0  0  0  0
  1 39  1  0  0  0  0
  1 40  1  0  0  0  0
  2  3  1  0  0  0  0
  2  4  1  0  0  0  0
  2 41  1  0  0  0  0
  3 42  1  0  0  0  0
  3 43  1  0  0  0  0
  4  5  1  0  0  0  0
  4 44  1  0  0  0  0
  4 45  1  0  0  0  0
  5  6  1  0  0  0  0
  5 46  1  0  0  0  0
  5 47  1  0  0  0  0
  6  7  1  0  0  0  0
  6 11  1  0  0  0  0
  6 48  1  0  0  0  0
  7  8  1  0  0  0  0
  7 12  1  0  0  0  0
  7 49  1  0  0  0  0
  8  9  1  0  0  0  0
  8 50  1  0  0  0  0
  9 10  2  0  0  0  0
  9 13  1  0  0  0  0
 11 51  1  0  0  0  0
 12 38  1  0  0  0  0
 12 52  1  0  0  0  0
 12 53  1  0  0  0  0
 13 14  1  0  0  0  0
 13 18  2  0  0  0  0
 14 15  2  0  0  0  0
 14 54  1  0  0  0  0
 15 16  1  0  0  0  0
 15 19  1  0  0  0  0
 16 17  2  0  0  0  0
 16 55  1  0  0  0  0
 17 18  1  0  0  0  0
 17 20  1  0  0  0  0
 18 56  1  0  0  0  0
 19 21  2  0  0  0  0
 19 28  1  0  0  0  0
 20 22  1  0  0  0  0
 20 29  1  0  0  0  0
 22 57  1  0  0  0  0
 22 58  1  0  0  0  0
 22 59  1  0  0  0  0
 23 24  1  0  0  0  0
 23 28  2  0  0  0  0
 23 60  1  0  0  0  0
 24 25  2  0  0  0  0
 24 61  1  0  0  0  0
 25 26  1  0  0  0  0
 25 62  1  0  0  0  0
 26 27  2  0  0  0  0
 26 63  1  0  0  0  0
 27 28  1  0  0  0  0
 27 64  1  0  0  0  0
 29 30  1  0  0  0  0
 29 31  2  0  0  0  0
 29 32  2  0  0  0  0
 30 65  1  0  0  0  0
 30 66  1  0  0  0  0
 30 67  1  0  0  0  0
 33 34  1  0  0  0  0
 33 38  2  0  0  0  0
 33 68  1  0  0  0  0
 34 35  2  0  0  0  0
 34 69  1  0  0  0  0
 35 36  1  0  0  0  0
 35 70  1  0  0  0  0
 36 37  2  0  0  0  0
 36 71  1  0  0  0  0
 37 38  1  0  0  0  0
 37 72  1  0  0  0  0
M  CHG  1   4   1
M  END
>  <PARENT_CMPD_ID>
2B8V

>  <STANDARD_TYPE>
IC50

>  <RELATION>
=

>  <STANDARD_VALUE>
0.097999997

>  <STANDARD_UNITS>
uM

>  <COMPOUND_KEY>
7e

>  <PUBMED_ID>
16263281

>  <JOURNAL>
Bioorg.Med.Chem.Lett.

>  <YEAR>
2006

>  <VOLUME>
16

>  <FIRST_PAGE>
641

>  <Company>
Merck

>  <Resolution>
1.8

>  <idx>
100

>  <Model>
Train

>  <target>
7.0087738

>  <des_pred_mlr>
6.9211998

>  <RF_Canvas>
7.1200156

>  <DNN_Canvas>
7.1736202

>  <pred_CoMFA>
6.2076998

>  <pred_COMSIA>
5.9473

>  <pred_abm5>
6.6413941

>  <pred_ff8>
7.4242306

>  <pred_gau6>
6.4339347

>  <CID>
BACE_100

>  <active>
1

>  <des_class_bayes>
1

>  <maacs_class_bayes>
1

>  <radial_class_bayes>
1

>  <dend_class_bayes>
1

>  <molprint_class_bayes>
1

>  <RF_canvas>
1

>  <DNN_canvas>
1

$$$$
4FM7_9224
  MOE2015           3D

 66 69  0  0  1  0  0  0  0  0999 V2000
   24.1580   14.7140   19.8720 C   0  0  0  0  0  0  0  0  0  0  0  0
   25.1840   14.9810   19.6640 H   0  0  0  0  0  0  0  0  0  0  0  0
   23.6430   10.4760   19.3320 C   0  0  0  0  0  0  0  0  0  0  0  0
   22.6580   10.0570   19.1880 H   0  0  0  0  0  0  0  0  0  0  0  0
   23.7520   14.4820   21.1710 C   0  0  0  0  0  0  0  0  0  0  0  0
   24.4680   14.5600   21.9760 H   0  0  0  0  0  0  0  0  0  0  0  0
   24.2030   11.2440   18.3340 C   0  0  0  0  0  0  0  0  0  0  0  0
   23.6560   11.4530   17.4270 H   0  0  0  0  0  0  0  0  0  0  0  0
   23.2500   14.6040   18.8440 C   0  0  0  0  0  0  0  0  0  0  0  0
   23.5650   14.7530   17.8220 H   0  0  0  0  0  0  0  0  0  0  0  0
   25.5990   10.7250   20.6740 C   0  0  0  0  0  0  0  0  0  0  0  0
   26.1400   10.5330   21.5890 H   0  0  0  0  0  0  0  0  0  0  0  0
   21.5100   14.1090   20.4310 C   0  0  0  0  0  0  0  0  0  0  0  0
   20.4680   13.9280   20.6470 H   0  0  0  0  0  0  0  0  0  0  0  0
   24.3150   10.2330   20.5100 C   0  0  0  0  0  0  0  0  0  0  0  0
   22.4430   14.1520   21.4520 C   0  0  0  0  0  0  0  0  0  0  0  0
   25.4760   11.7400   18.5180 C   0  0  0  0  0  0  0  0  0  0  0  0
   26.1800   11.4550   19.6730 C   0  0  0  0  0  0  0  0  0  0  0  0
   21.9340   14.3020   19.1290 C   0  0  0  0  0  0  0  0  0  0  0  0
   22.8870   12.1700   24.2370 C   0  0  0  0  0  0  0  0  0  0  0  0
   23.5080   12.9420   24.6920 H   0  0  0  0  0  0  0  0  0  0  0  0
   22.5510   11.4730   25.0050 H   0  0  0  0  0  0  0  0  0  0  0  0
   20.8460   11.8090   22.8950 C   0  0  0  0  0  0  0  0  0  0  0  0
   20.3750   11.1540   23.6280 H   0  0  0  0  0  0  0  0  0  0  0  0
   20.0760   12.3290   22.3250 H   0  0  0  0  0  0  0  0  0  0  0  0
   20.8070   13.3840   24.7500 C   0  0  0  0  0  0  0  0  0  0  0  0
   20.9020   12.7560   25.6360 H   0  0  0  0  0  0  0  0  0  0  0  0
   19.7640   13.4120   24.4340 H   0  0  0  0  0  0  0  0  0  0  0  0
   23.7260   11.4090   23.2290 C   0  0  0  0  0  0  0  0  0  0  0  0
   24.5660   10.9370   23.7380 H   0  0  0  0  0  0  0  0  0  0  0  0
   24.1010   12.0990   22.4730 H   0  0  0  0  0  0  0  0  0  0  0  0
   21.6650   10.9620   21.9420 C   0  0  3  0  0  0  0  0  0  0  0  0
   22.0010   11.5990   21.1240 H   0  0  0  0  0  0  0  0  0  0  0  0
   21.6760   12.8280   23.6240 C   0  0  3  0  0  0  0  0  0  0  0  0
   20.7770    9.8190   21.5010 C   0  0  0  0  0  0  0  0  0  0  0  0
   20.4840    9.2300   22.3700 H   0  0  0  0  0  0  0  0  0  0  0  0
   21.3210    9.1860   20.8000 H   0  0  0  0  0  0  0  0  0  0  0  0
   19.8860   10.2170   21.0150 H   0  0  0  0  0  0  0  0  0  0  0  0
   28.8360   10.0980   20.4380 C   0  0  0  0  0  0  0  0  0  0  0  0
   29.4540    9.7280   21.2560 H   0  0  0  0  0  0  0  0  0  0  0  0
   29.4410   10.1810   19.5350 H   0  0  0  0  0  0  0  0  0  0  0  0
   28.0130    9.4050   20.2610 H   0  0  0  0  0  0  0  0  0  0  0  0
   29.4260   12.4470   20.9370 C   0  0  0  0  0  0  0  0  0  0  0  0
   30.1020   12.1120   21.7240 H   0  0  0  0  0  0  0  0  0  0  0  0
   29.0320   13.4310   21.1910 H   0  0  0  0  0  0  0  0  0  0  0  0
   29.9680   12.5050   19.9930 H   0  0  0  0  0  0  0  0  0  0  0  0
   20.3870   15.5220   25.9480 C   0  0  0  0  0  0  0  0  0  0  0  0
   20.1150   14.9080   26.8060 H   0  0  0  0  0  0  0  0  0  0  0  0
   19.4860   15.8090   25.4060 H   0  0  0  0  0  0  0  0  0  0  0  0
   20.9050   16.4170   26.2920 H   0  0  0  0  0  0  0  0  0  0  0  0
   23.6820    9.4720   21.6400 C   0  0  0  0  0  0  0  0  0  0  0  0
   24.4680    8.9760   22.2100 H   0  0  0  0  0  0  0  0  0  0  0  0
   23.0090    8.7230   21.2220 H   0  0  0  0  0  0  0  0  0  0  0  0
   28.2790   11.4630   20.8020 C   0  0  0  0  0  0  0  0  0  0  0  0
   27.7060   11.3400   21.7210 H   0  0  0  0  0  0  0  0  0  0  0  0
   22.0640   14.0290   22.8270 N   0  0  0  0  0  0  0  0  0  0  0  0
   21.2770   14.7500   25.0510 N   0  0  0  0  0  0  0  0  0  0  0  0
   22.8920   10.3670   22.5780 N   0  3  3  0  0  0  0  0  0  0  0  0
   22.5680    9.7500   23.3090 H   0  0  0  0  0  0  0  0  0  0  0  0
   23.1280   16.1120   23.8570 O   0  0  0  0  0  0  0  0  0  0  0  0
   20.7540   16.2780   23.0640 O   0  0  0  0  0  0  0  0  0  0  0  0
   26.1170   12.4900   17.5420 O   0  0  0  0  0  0  0  0  0  0  0  0
   27.0150   12.7530   17.7570 H   0  0  0  0  0  0  0  0  0  0  0  0
   27.4550   11.9930   19.7490 O   0  0  0  0  0  0  0  0  0  0  0  0
   21.0510   14.2090   18.1130 F   0  0  0  0  0  0  0  0  0  0  0  0
   21.8250   15.5110   23.6500 S   0  0  0  0  0  0  0  0  0  0  0  0
  1  2  1  0  0  0  0
  1  5  2  0  0  0  0
  1  9  1  0  0  0  0
  3  4  1  0  0  0  0
  3  7  1  0  0  0  0
  3 15  2  0  0  0  0
  5  6  1  0  0  0  0
  5 16  1  0  0  0  0
  7  8  1  0  0  0  0
  7 17  2  0  0  0  0
  9 10  1  0  0  0  0
  9 19  2  0  0  0  0
 11 12  1  0  0  0  0
 11 15  1  0  0  0  0
 11 18  2  0  0  0  0
 13 14  1  0  0  0  0
 13 16  2  0  0  0  0
 13 19  1  0  0  0  0
 15 51  1  0  0  0  0
 16 56  1  0  0  0  0
 17 18  1  0  0  0  0
 17 62  1  0  0  0  0
 18 64  1  0  0  0  0
 19 65  1  0  0  0  0
 20 21  1  0  0  0  0
 20 22  1  0  0  0  0
 20 29  1  0  0  0  0
 20 34  1  0  0  0  0
 23 24  1  0  0  0  0
 23 25  1  0  0  0  0
 23 32  1  0  0  0  0
 23 34  1  0  0  0  0
 26 27  1  0  0  0  0
 26 28  1  0  0  0  0
 26 34  1  0  0  0  0
 26 57  1  0  0  0  0
 29 30  1  0  0  0  0
 29 31  1  0  0  0  0
 29 58  1  0  0  0  0
 32 33  1  0  0  0  0
 32 35  1  0  0  0  0
 32 58  1  0  0  0  0
 34 56  1  0  0  0  0
 35 36  1  0  0  0  0
 35 37  1  0  0  0  0
 35 38  1  0  0  0  0
 39 40  1  0  0  0  0
 39 41  1  0  0  0  0
 39 42  1  0  0  0  0
 39 54  1  0  0  0  0
 43 44  1  0  0  0  0
 43 45  1  0  0  0  0
 43 46  1  0  0  0  0
 43 54  1  0  0  0  0
 47 48  1  0  0  0  0
 47 49  1  0  0  0  0
 47 50  1  0  0  0  0
 47 57  1  0  0  0  0
 51 52  1  0  0  0  0
 51 53  1  0  0  0  0
 51 58  1  0  0  0  0
 54 55  1  0  0  0  0
 54 64  1  0  0  0  0
 56 66  1  0  0  0  0
 57 66  1  0  0  0  0
 58 59  1  0  0  0  0
 60 66  2  0  0  0  0
 61 66  2  0  0  0  0
 62 63  1  0  0  0  0
M  CHG  1  58   1
M  END
>  <PARENT_CMPD_ID>
4FM7

>  <STANDARD_TYPE>
IC50

>  <RELATION>
=

>  <STANDARD_VALUE>
0.1

>  <STANDARD_UNITS>
uM

>  <COMPOUND_KEY>
14g

>  <PUBMED_ID>
22984865

>  <JOURNAL>
J.Med.Chem.

>  <YEAR>
2012

>  <VOLUME>
55

>  <FIRST_PAGE>
9224

>  <Company>
Pfizer

>  <Resolution>
1.5599999

>  <idx>
101

>  <Model>
Train

>  <target>
7

>  <des_pred_mlr>
6.7398

>  <RF_Canvas>
6.7207441

>  <DNN_Canvas>
6.2312217

>  <pred_CoMFA>
6.1227002

>  <pred_COMSIA>
6.5646

>  <pred_abm5>
6.7494092

>  <pred_ff8>
5.7100673

>  <pred_gau6>
6.4168482

>  <CID>
BACE_101

>  <active>
1

>  <des_class_bayes>
1

>  <maacs_class_bayes>
1

>  <radial_class_bayes>
1

>  <dend_class_bayes>
1

>  <molprint_class_bayes>
1

>  <RF_canvas>
1

>  <DNN_canvas>
1

$$$$
3L38_2068
  MOE2015           3D

 53 57  0  0  0  0  0  0  0  0999 V2000
   15.9400   11.2250   21.5290 C   0  0  0  0  0  0  0  0  0  0  0  0
   29.1990    9.7930   22.0890 N   0  0  0  0  0  0  0  0  0  0  0  0
   27.0130   10.8120   19.3110 O   0  0  0  0  0  0  0  0  0  0  0  0
   18.5670    8.5660   19.0130 Cl  0  0  0  0  0  0  0  0  0  0  0  0
   15.5740    9.9060   21.2700 C   0  0  0  0  0  0  0  0  0  0  0  0
   29.0050   12.1950   22.0120 N   0  0  0  0  0  0  0  0  0  0  0  0
   21.2020   12.1880   23.8120 C   0  0  0  0  0  0  0  0  0  0  0  0
   21.7100    9.5550   23.1030 N   0  0  0  0  0  0  0  0  0  0  0  0
   17.1260   11.7440   21.0140 C   0  0  0  0  0  0  0  0  0  0  0  0
   20.4600   10.9810   19.9910 N   0  0  0  0  0  0  0  0  0  0  0  0
   23.5580   11.2070   20.5950 C   0  0  0  0  0  0  0  0  0  0  0  0
   22.7150    9.1450   25.2010 N   0  0  0  0  0  0  0  0  0  0  0  0
   23.6210   11.5090   18.2040 C   0  0  0  0  0  0  0  0  0  0  0  0
   24.9400   10.9810   20.6130 C   0  0  0  0  0  0  0  0  0  0  0  0
   24.9970   11.2850   18.2140 C   0  0  0  0  0  0  0  0  0  0  0  0
   16.3940    9.0950   20.4900 C   0  0  0  0  0  0  0  0  0  0  0  0
   20.7760   12.6810   18.5880 C   0  0  0  0  0  0  0  0  0  0  0  0
   19.3890   12.5420   18.8140 C   0  0  0  0  0  0  0  0  0  0  0  0
   20.8190   11.7220   22.5610 C   0  0  0  0  0  0  0  0  0  0  0  0
   21.8380   11.3330   24.7080 C   0  0  0  0  0  0  0  0  0  0  0  0
   28.3750    9.7280   21.0210 C   0  0  0  0  0  0  0  0  0  0  0  0
   28.1870   12.0620   20.9480 C   0  0  0  0  0  0  0  0  0  0  0  0
   29.4650   11.0390   22.5270 C   0  0  0  0  0  0  0  0  0  0  0  0
   22.8840   11.4760   19.3890 C   0  0  0  0  0  0  0  0  0  0  0  0
   17.9610   10.9390   20.2280 C   0  0  0  0  0  0  0  0  0  0  0  0
   25.6550   11.0210   19.4130 C   0  0  0  0  0  0  0  0  0  0  0  0
   27.8370   10.8420   20.4040 C   0  0  0  0  0  0  0  0  0  0  0  0
   17.5840    9.6120   19.9730 C   0  0  0  0  0  0  0  0  0  0  0  0
   21.4380   11.7100   19.3220 C   0  0  0  0  0  0  0  0  0  0  0  0
   19.2070   11.4830   19.6880 C   0  0  0  0  0  0  0  0  0  0  0  0
   21.0930   10.3990   22.2410 C   0  0  0  0  0  0  0  0  0  0  0  0
   22.0810   10.0170   24.3210 C   0  0  0  0  0  0  0  0  0  0  0  0
   20.6940    9.8580   20.8960 C   0  0  0  0  0  0  0  0  0  0  0  0
   15.3000   11.8500   22.1340 H   0  0  0  0  0  0  0  0  0  0  0  0
   14.6530    9.5120   21.6750 H   0  0  0  0  0  0  0  0  0  0  0  0
   21.0070   13.2130   24.0900 H   0  0  0  0  0  0  0  0  0  0  0  0
   17.4020   12.7670   21.2210 H   0  0  0  0  0  0  0  0  0  0  0  0
   23.0010   11.1740   21.5200 H   0  0  0  0  0  0  0  0  0  0  0  0
   22.9970    9.4670   26.1160 H   0  0  0  0  0  0  0  0  0  0  0  0
   22.8930    8.1900   24.9250 H   0  0  0  0  0  0  0  0  0  0  0  0
   23.1200   11.7100   17.2690 H   0  0  0  0  0  0  0  0  0  0  0  0
   25.4480   10.7780   21.5440 H   0  0  0  0  0  0  0  0  0  0  0  0
   25.5540   11.3160   17.2890 H   0  0  0  0  0  0  0  0  0  0  0  0
   16.1120    8.0730   20.2860 H   0  0  0  0  0  0  0  0  0  0  0  0
   21.2420   13.4190   17.9510 H   0  0  0  0  0  0  0  0  0  0  0  0
   18.6090   13.1520   18.3820 H   0  0  0  0  0  0  0  0  0  0  0  0
   20.3210   12.3710   21.8560 H   0  0  0  0  0  0  0  0  0  0  0  0
   22.1370   11.6830   25.6850 H   0  0  0  0  0  0  0  0  0  0  0  0
   28.1230    8.7540   20.6280 H   0  0  0  0  0  0  0  0  0  0  0  0
   27.7840   12.9570   20.4980 H   0  0  0  0  0  0  0  0  0  0  0  0
   30.1180   11.1190   23.3840 H   0  0  0  0  0  0  0  0  0  0  0  0
   21.4920    9.2290   20.5020 H   0  0  0  0  0  0  0  0  0  0  0  0
   19.7820    9.2690   20.9930 H   0  0  0  0  0  0  0  0  0  0  0  0
  1  5  2  0  0  0  0
  1  9  1  0  0  0  0
  1 34  1  0  0  0  0
  2 21  1  0  0  0  0
  2 23  2  0  0  0  0
  3 26  1  0  0  0  0
  3 27  1  0  0  0  0
  4 28  1  0  0  0  0
  5 16  1  0  0  0  0
  5 35  1  0  0  0  0
  6 22  2  0  0  0  0
  6 23  1  0  0  0  0
  7 19  2  0  0  0  0
  7 20  1  0  0  0  0
  7 36  1  0  0  0  0
  8 31  2  0  0  0  0
  8 32  1  0  0  0  0
  9 25  2  0  0  0  0
  9 37  1  0  0  0  0
 10 29  1  0  0  0  0
 10 30  1  0  0  0  0
 10 33  1  0  0  0  0
 11 14  1  0  0  0  0
 11 24  2  0  0  0  0
 11 38  1  0  0  0  0
 12 32  1  0  0  0  0
 12 39  1  0  0  0  0
 12 40  1  0  0  0  0
 13 15  2  0  0  0  0
 13 24  1  0  0  0  0
 13 41  1  0  0  0  0
 14 26  2  0  0  0  0
 14 42  1  0  0  0  0
 15 26  1  0  0  0  0
 15 43  1  0  0  0  0
 16 28  2  0  0  0  0
 16 44  1  0  0  0  0
 17 18  1  0  0  0  0
 17 29  2  0  0  0  0
 17 45  1  0  0  0  0
 18 30  2  0  0  0  0
 18 46  1  0  0  0  0
 19 31  1  0  0  0  0
 19 47  1  0  0  0  0
 20 32  2  0  0  0  0
 20 48  1  0  0  0  0
 21 27  2  0  0  0  0
 21 49  1  0  0  0  0
 22 27  1  0  0  0  0
 22 50  1  0  0  0  0
 23 51  1  0  0  0  0
 24 29  1  0  0  0  0
 25 28  1  0  0  0  0
 25 30  1  0  0  0  0
 31 33  1  0  0  0  0
 33 52  1  0  0  0  0
 33 53  1  0  0  0  0
M  END
>  <PARENT_CMPD_ID>
3L38

>  <STANDARD_TYPE>
IC50

>  <RELATION>
=

>  <STANDARD_VALUE>
0.1

>  <STANDARD_UNITS>
uM

>  <COMPOUND_KEY>
44

>  <PUBMED_ID>
20223661

>  <JOURNAL>
Bioorg.Med.Chem.Lett.

>  <YEAR>
2010

>  <VOLUME>
20

>  <FIRST_PAGE>
2068

>  <Company>
Wyeth

>  <Resolution>
2.0999999

>  <idx>
102

>  <Model>
Train

>  <target>
7

>  <des_pred_mlr>
7.4197898

>  <RF_Canvas>
6.7479935

>  <DNN_Canvas>
6.4118061

>  <pred_CoMFA>
6.5107002

>  <pred_COMSIA>
6.4356999

>  <pred_abm5>
6.6118021

>  <pred_ff8>
5.6321507

>  <pred_gau6>
6.3262553

>  <CID>
BACE_102

>  <active>
1

>  <des_class_bayes>
0

>  <maacs_class_bayes>
0

>  <radial_class_bayes>
1

>  <dend_class_bayes>
0

>  <molprint_class_bayes>
1

>  <RF_canvas>
1

>  <DNN_canvas>
0

$$$$
2HIZ_73
  MOE2015           3D

 97 99  0  0  1  0  0  0  0  0999 V2000
   30.5240   16.9360   20.4910 C   0  0  0  0  0  0  0  0  0  0  0  0
   29.5680   15.7300   20.7860 C   0  0  0  0  0  0  0  0  0  0  0  0
   30.1840   14.5840   21.7000 C   0  0  0  0  0  0  0  0  0  0  0  0
   29.3090   13.4090   22.3590 C   0  0  0  0  0  0  0  0  0  0  0  0
   25.2000   13.5590   24.0030 C   0  0  3  0  0  0  0  0  0  0  0  0
   23.9200   11.5130   23.4740 N   0  0  0  0  0  0  0  0  0  0  0  0
   22.8140   10.6760   23.0260 C   0  0  3  0  0  0  0  0  0  0  0  0
   24.0380   10.5190   20.7170 C   0  0  0  0  0  0  0  0  0  0  0  0
   25.8320   10.6900   18.8970 C   0  0  0  0  0  0  0  0  0  0  0  0
   23.4830   11.8120   20.2410 C   0  0  0  0  0  0  0  0  0  0  0  0
   22.2150    9.8690   24.1910 C   0  0  3  0  0  0  0  0  0  0  0  0
   21.5980   10.7850   25.2240 C   0  0  0  0  0  0  0  0  0  0  0  0
   20.2870   10.8710   27.3260 C   0  0  0  0  0  0  0  0  0  0  0  0
   18.2180   10.6080   25.7060 C   0  0  0  0  0  0  0  0  0  0  0  0
   16.8040   12.5960   25.0160 C   0  0  0  0  0  0  0  0  0  0  0  0
   28.7950    9.7690   20.9070 C   0  0  0  0  0  0  0  0  0  0  0  0
   29.1990   10.8520   21.9310 C   0  0  0  0  0  0  0  0  0  0  0  0
   28.8820   12.2760   21.4070 C   0  0  0  0  0  0  0  0  0  0  0  0
   27.9130   13.9930   23.4390 S   0  0  0  0  0  0  0  0  0  0  0  0
   28.2160   13.6610   24.8020 O   0  0  0  0  0  0  0  0  0  0  0  0
   27.7930   15.4110   23.2010 O   0  0  0  0  0  0  0  0  0  0  0  0
   26.3330   13.1710   23.0600 C   0  0  0  0  0  0  0  0  0  0  0  0
   23.9540   12.8510   23.5420 C   0  0  0  0  0  0  0  0  0  0  0  0
   23.0040   13.6070   23.2320 O   0  0  0  0  0  0  0  0  0  0  0  0
   23.4100    9.7670   21.9150 C   0  0  0  0  0  0  0  0  0  0  0  0
   25.2240    9.9690   20.0270 C   0  0  0  0  0  0  0  0  0  0  0  0
   25.2620   11.9680   18.4470 C   0  0  0  0  0  0  0  0  0  0  0  0
   24.0940   12.5190   19.1210 C   0  0  0  0  0  0  0  0  0  0  0  0
   21.1760    9.0530   23.7200 O   0  0  0  0  0  0  0  0  0  0  0  0
   20.9700   10.0110   26.3490 N   0  3  0  0  0  0  0  0  0  0  0  0
   19.0800   11.4680   26.5460 C   0  0  0  0  0  0  0  0  0  0  0  0
   17.0810   11.1320   24.9320 C   0  0  0  0  0  0  0  0  0  0  0  0
   16.3430   10.2440   24.1550 O   0  0  0  0  0  0  0  0  0  0  0  0
   17.6480   13.4670   25.8460 C   0  0  0  0  0  0  0  0  0  0  0  0
   18.7790   12.9100   26.6050 C   0  0  0  0  0  0  0  0  0  0  0  0
   15.9350    8.9150   24.5800 C   0  0  0  0  0  0  0  0  0  0  0  0
   25.1500   14.9720   24.0200 N   0  0  0  0  0  0  0  0  0  0  0  0
   25.4620   15.8030   25.1010 C   0  0  0  0  0  0  0  0  0  0  0  0
   25.8370   15.3700   26.1890 O   0  0  0  0  0  0  0  0  0  0  0  0
   25.3260   17.1340   24.8050 O   0  0  0  0  0  0  0  0  0  0  0  0
   25.6050   18.1540   25.7800 C   0  0  0  0  0  0  0  0  0  0  0  0
   25.3810   19.5090   25.1710 C   0  0  0  0  0  0  0  0  0  0  0  0
   24.0350   20.0320   25.0330 C   0  0  0  0  0  0  0  0  0  0  0  0
   23.8160   21.3310   24.4430 C   0  0  0  0  0  0  0  0  0  0  0  0
   24.9450   22.1280   23.9820 C   0  0  0  0  0  0  0  0  0  0  0  0
   26.2950   21.6160   24.1160 C   0  0  0  0  0  0  0  0  0  0  0  0
   26.5220   20.3140   24.7070 C   0  0  0  0  0  0  0  0  0  0  0  0
   30.0100   17.6620   19.8610 H   0  0  0  0  0  0  0  0  0  0  0  0
   31.4150   16.5760   19.9770 H   0  0  0  0  0  0  0  0  0  0  0  0
   30.8120   17.4100   21.4300 H   0  0  0  0  0  0  0  0  0  0  0  0
   29.2840   15.2840   19.8330 H   0  0  0  0  0  0  0  0  0  0  0  0
   28.6800   16.1180   21.2850 H   0  0  0  0  0  0  0  0  0  0  0  0
   30.6710   15.0950   22.5310 H   0  0  0  0  0  0  0  0  0  0  0  0
   30.9370   14.0870   21.0880 H   0  0  0  0  0  0  0  0  0  0  0  0
   30.0330   12.9450   23.0290 H   0  0  0  0  0  0  0  0  0  0  0  0
   25.3360   13.2480   25.0390 H   0  0  0  0  0  0  0  0  0  0  0  0
   24.7570   11.0290   23.7670 H   0  0  0  0  0  0  0  0  0  0  0  0
   21.9830   11.2670   22.6400 H   0  0  0  0  0  0  0  0  0  0  0  0
   26.6980   10.2800   18.3980 H   0  0  0  0  0  0  0  0  0  0  0  0
   22.6170   12.2330   20.7300 H   0  0  0  0  0  0  0  0  0  0  0  0
   23.0250    9.2840   24.6280 H   0  0  0  0  0  0  0  0  0  0  0  0
   20.8320   11.3940   24.7440 H   0  0  0  0  0  0  0  0  0  0  0  0
   22.3750   11.4320   25.6310 H   0  0  0  0  0  0  0  0  0  0  0  0
   20.9510   11.6630   27.6720 H   0  0  0  0  0  0  0  0  0  0  0  0
   19.9430   10.2860   28.1790 H   0  0  0  0  0  0  0  0  0  0  0  0
   18.4320    9.5500   25.6590 H   0  0  0  0  0  0  0  0  0  0  0  0
   15.9780   13.0180   24.4630 H   0  0  0  0  0  0  0  0  0  0  0  0
   29.0320    8.7830   21.3080 H   0  0  0  0  0  0  0  0  0  0  0  0
   29.3440    9.9250   19.9780 H   0  0  0  0  0  0  0  0  0  0  0  0
   27.7250    9.8340   20.7120 H   0  0  0  0  0  0  0  0  0  0  0  0
   30.2690   10.7760   22.1240 H   0  0  0  0  0  0  0  0  0  0  0  0
   28.6500   10.6850   22.8580 H   0  0  0  0  0  0  0  0  0  0  0  0
   29.4000   12.4140   20.4580 H   0  0  0  0  0  0  0  0  0  0  0  0
   27.8060   12.3500   21.2480 H   0  0  0  0  0  0  0  0  0  0  0  0
   26.0420   13.4370   22.0440 H   0  0  0  0  0  0  0  0  0  0  0  0
   26.4810   12.0930   23.1250 H   0  0  0  0  0  0  0  0  0  0  0  0
   22.6100    9.1320   21.5330 H   0  0  0  0  0  0  0  0  0  0  0  0
   24.1830    9.1450   22.3660 H   0  0  0  0  0  0  0  0  0  0  0  0
   25.6480    9.0310   20.3550 H   0  0  0  0  0  0  0  0  0  0  0  0
   25.7080   12.4970   17.6180 H   0  0  0  0  0  0  0  0  0  0  0  0
   23.6770   13.4580   18.7890 H   0  0  0  0  0  0  0  0  0  0  0  0
   20.5010    9.6270   23.3510 H   0  0  0  0  0  0  0  0  0  0  0  0
   21.6940    9.4930   26.8270 H   0  0  0  0  0  0  0  0  0  0  0  0
   20.2960    9.3670   25.9600 H   0  0  0  0  0  0  0  0  0  0  0  0
   17.4360   14.5250   25.8990 H   0  0  0  0  0  0  0  0  0  0  0  0
   19.3930   13.5620   27.2090 H   0  0  0  0  0  0  0  0  0  0  0  0
   15.3700    8.4350   23.7810 H   0  0  0  0  0  0  0  0  0  0  0  0
   15.3100    8.9940   25.4700 H   0  0  0  0  0  0  0  0  0  0  0  0
   16.8190    8.3190   24.8080 H   0  0  0  0  0  0  0  0  0  0  0  0
   24.8600   15.4270   23.1660 H   0  0  0  0  0  0  0  0  0  0  0  0
   26.6420   18.0700   26.1060 H   0  0  0  0  0  0  0  0  0  0  0  0
   24.9430   18.0280   26.6370 H   0  0  0  0  0  0  0  0  0  0  0  0
   23.1930   19.4470   25.3730 H   0  0  0  0  0  0  0  0  0  0  0  0
   22.8110   21.7140   24.3430 H   0  0  0  0  0  0  0  0  0  0  0  0
   24.7770   23.0990   23.5410 H   0  0  0  0  0  0  0  0  0  0  0  0
   27.1320   22.2070   23.7750 H   0  0  0  0  0  0  0  0  0  0  0  0
   27.5280   19.9340   24.8070 H   0  0  0  0  0  0  0  0  0  0  0  0
  1  2  1  0  0  0  0
  1 48  1  0  0  0  0
  1 49  1  0  0  0  0
  1 50  1  0  0  0  0
  2  3  1  0  0  0  0
  2 51  1  0  0  0  0
  2 52  1  0  0  0  0
  3  4  1  0  0  0  0
  3 53  1  0  0  0  0
  3 54  1  0  0  0  0
  4 18  1  0  0  0  0
  4 19  1  0  0  0  0
  4 55  1  0  0  0  0
  5 22  1  0  0  0  0
  5 23  1  0  0  0  0
  5 37  1  0  0  0  0
  5 56  1  0  0  0  0
  6  7  1  0  0  0  0
  6 23  1  0  0  0  0
  6 57  1  0  0  0  0
  7 11  1  0  0  0  0
  7 25  1  0  0  0  0
  7 58  1  0  0  0  0
  8 10  1  0  0  0  0
  8 25  1  0  0  0  0
  8 26  2  0  0  0  0
  9 26  1  0  0  0  0
  9 27  2  0  0  0  0
  9 59  1  0  0  0  0
 10 28  2  0  0  0  0
 10 60  1  0  0  0  0
 11 12  1  0  0  0  0
 11 29  1  0  0  0  0
 11 61  1  0  0  0  0
 12 30  1  0  0  0  0
 12 62  1  0  0  0  0
 12 63  1  0  0  0  0
 13 30  1  0  0  0  0
 13 31  1  0  0  0  0
 13 64  1  0  0  0  0
 13 65  1  0  0  0  0
 14 31  1  0  0  0  0
 14 32  2  0  0  0  0
 14 66  1  0  0  0  0
 15 32  1  0  0  0  0
 15 34  2  0  0  0  0
 15 67  1  0  0  0  0
 16 17  1  0  0  0  0
 16 68  1  0  0  0  0
 16 69  1  0  0  0  0
 16 70  1  0  0  0  0
 17 18  1  0  0  0  0
 17 71  1  0  0  0  0
 17 72  1  0  0  0  0
 18 73  1  0  0  0  0
 18 74  1  0  0  0  0
 19 20  2  0  0  0  0
 19 21  2  0  0  0  0
 19 22  1  0  0  0  0
 22 75  1  0  0  0  0
 22 76  1  0  0  0  0
 23 24  2  0  0  0  0
 25 77  1  0  0  0  0
 25 78  1  0  0  0  0
 26 79  1  0  0  0  0
 27 28  1  0  0  0  0
 27 80  1  0  0  0  0
 28 81  1  0  0  0  0
 29 82  1  0  0  0  0
 30 83  1  0  0  0  0
 30 84  1  0  0  0  0
 31 35  2  0  0  0  0
 32 33  1  0  0  0  0
 33 36  1  0  0  0  0
 34 35  1  0  0  0  0
 34 85  1  0  0  0  0
 35 86  1  0  0  0  0
 36 87  1  0  0  0  0
 36 88  1  0  0  0  0
 36 89  1  0  0  0  0
 37 38  1  0  0  0  0
 37 90  1  0  0  0  0
 38 39  2  0  0  0  0
 38 40  1  0  0  0  0
 40 41  1  0  0  0  0
 41 42  1  0  0  0  0
 41 91  1  0  0  0  0
 41 92  1  0  0  0  0
 42 43  1  0  0  0  0
 42 47  2  0  0  0  0
 43 44  2  0  0  0  0
 43 93  1  0  0  0  0
 44 45  1  0  0  0  0
 44 94  1  0  0  0  0
 45 46  2  0  0  0  0
 45 95  1  0  0  0  0
 46 47  1  0  0  0  0
 46 96  1  0  0  0  0
 47 97  1  0  0  0  0
M  CHG  1  30   1
M  END
>  <PARENT_CMPD_ID>
2HIZ

>  <STANDARD_TYPE>
IC50

>  <RELATION>
=

>  <STANDARD_VALUE>
0.112

>  <STANDARD_UNITS>
uM

>  <COMPOUND_KEY>
32

>  <PUBMED_ID>
17046251

>  <JOURNAL>
Bioorg.Med.Chem.Lett.

>  <YEAR>
2007

>  <VOLUME>
17

>  <FIRST_PAGE>
73

>  <Company>
Pfizer

>  <Resolution>
2.5

>  <idx>
103

>  <Model>
Train

>  <target>
6.9507818

>  <des_pred_mlr>
7.5559502

>  <RF_Canvas>
7.1603618

>  <DNN_Canvas>
7.0355444

>  <pred_CoMFA>
7.2227998

>  <pred_COMSIA>
8.0270004

>  <pred_abm5>
7.3559833

>  <pred_ff8>
7.8995161

>  <pred_gau6>
7.4953694

>  <CID>
BACE_103

>  <active>
0

>  <des_class_bayes>
1

>  <maacs_class_bayes>
0

>  <radial_class_bayes>
0

>  <dend_class_bayes>
0

>  <molprint_class_bayes>
0

>  <RF_canvas>
0

>  <DNN_canvas>
1

$$$$
3LPJ_2837
  MOE2015           3D

 90 93  0  0  1  0  0  0  0  0999 V2000
   26.7530   15.8780   24.3710 C   0  0  0  0  0  0  0  0  0  0  0  0
   26.8990   10.9450   19.1090 F   0  0  0  0  0  0  0  0  0  0  0  0
   28.5290   13.9560   21.8600 N   0  0  0  0  0  0  0  0  0  0  0  0
   29.0570   13.9990   24.0880 O   0  0  0  0  0  0  0  0  0  0  0  0
   26.9040   14.6630   23.6610 C   0  0  0  0  0  0  0  0  0  0  0  0
   23.0580   13.5320   18.3340 F   0  0  0  0  0  0  0  0  0  0  0  0
   23.5120   12.0760   23.3520 N   0  0  0  0  0  0  0  0  0  0  0  0
   22.1690   13.9090   23.4180 O   0  0  0  0  0  0  0  0  0  0  0  0
   25.7640   13.8550   23.3890 C   0  0  0  0  0  0  0  0  0  0  0  0
   20.9990   10.3520   26.5140 N   0  3  0  0  0  0  0  0  0  0  0  0
   21.0120    9.3280   23.8600 O   0  0  0  0  0  0  0  0  0  0  0  0
   24.4800   14.2480   23.8060 C   0  0  0  0  0  0  0  0  0  0  0  0
   19.1000   12.4720   25.8570 N   0  3  3  0  0  0  0  0  0  0  0  0
   24.3350   15.4720   24.5120 C   0  0  0  0  0  0  0  0  0  0  0  0
   25.4660   16.2920   24.8000 C   0  0  0  0  0  0  0  0  0  0  0  0
   28.2240   14.1970   23.2190 C   0  0  0  0  0  0  0  0  0  0  0  0
   29.8940   13.4610   21.5570 C   0  0  0  0  0  0  0  0  0  0  0  0
   27.6190   14.1560   20.6930 C   0  0  0  0  0  0  0  0  0  0  0  0
   28.1230   15.2840   19.7670 C   0  0  0  0  0  0  0  0  0  0  0  0
   28.3380   16.6180   20.5110 C   0  0  0  0  0  0  0  0  0  0  0  0
   29.8520   11.9680   21.0840 C   0  0  0  0  0  0  0  0  0  0  0  0
   29.1030   11.0000   22.0430 C   0  0  0  0  0  0  0  0  0  0  0  0
   25.2990   17.5920   25.5510 C   0  0  0  0  0  0  0  0  0  0  0  0
   23.2920   13.4230   23.5130 C   0  0  0  0  0  0  0  0  0  0  0  0
   22.4400   11.0980   23.0320 C   0  0  3  0  0  0  0  0  0  0  0  0
   21.9500   10.3180   24.2670 C   0  0  3  0  0  0  0  0  0  0  0  0
   22.9840   10.1550   21.9310 C   0  0  0  0  0  0  0  0  0  0  0  0
   23.6720   10.8940   20.8020 C   0  0  0  0  0  0  0  0  0  0  0  0
   25.0070   10.5730   20.4640 C   0  0  0  0  0  0  0  0  0  0  0  0
   25.6470   11.2630   19.4100 C   0  0  0  0  0  0  0  0  0  0  0  0
   25.0100   12.2730   18.6690 C   0  0  0  0  0  0  0  0  0  0  0  0
   23.6840   12.5850   19.0130 C   0  0  0  0  0  0  0  0  0  0  0  0
   22.9990   11.9220   20.0590 C   0  0  0  0  0  0  0  0  0  0  0  0
   21.2450   11.1920   25.3190 C   0  0  3  0  0  0  0  0  0  0  0  0
   19.9020   11.7950   24.7950 C   0  0  0  0  0  0  0  0  0  0  0  0
   18.9890   11.6530   27.1070 C   0  0  0  0  0  0  0  0  0  0  0  0
   20.3470   11.1190   27.5970 C   0  0  0  0  0  0  0  0  0  0  0  0
   17.7350   12.8950   25.3190 C   0  0  0  0  0  0  0  0  0  0  0  0
   16.7340   11.7580   25.0230 C   0  0  0  0  0  0  0  0  0  0  0  0
   15.7670   11.3640   25.9990 C   0  0  0  0  0  0  0  0  0  0  0  0
   14.8520   10.3170   25.7320 C   0  0  0  0  0  0  0  0  0  0  0  0
   14.8870    9.6490   24.4820 C   0  0  0  0  0  0  0  0  0  0  0  0
   15.8380   10.0270   23.5050 C   0  0  0  0  0  0  0  0  0  0  0  0
   16.7500   11.0710   23.7720 C   0  0  0  0  0  0  0  0  0  0  0  0
   27.6170   16.4890   24.5860 H   0  0  0  0  0  0  0  0  0  0  0  0
   24.4560   11.7310   23.4570 H   0  0  0  0  0  0  0  0  0  0  0  0
   25.8870   12.9250   22.8540 H   0  0  0  0  0  0  0  0  0  0  0  0
   21.8820    9.9960   26.8510 H   0  0  0  0  0  0  0  0  0  0  0  0
   20.4020    9.5800   26.2540 H   0  0  0  0  0  0  0  0  0  0  0  0
   21.4400    8.7750   23.2020 H   0  0  0  0  0  0  0  0  0  0  0  0
   19.5990   13.3090   26.1230 H   0  0  0  0  0  0  0  0  0  0  0  0
   23.3540   15.7860   24.8360 H   0  0  0  0  0  0  0  0  0  0  0  0
   30.5080   13.5340   22.4540 H   0  0  0  0  0  0  0  0  0  0  0  0
   30.3290   14.0740   20.7680 H   0  0  0  0  0  0  0  0  0  0  0  0
   26.6260   14.4160   21.0590 H   0  0  0  0  0  0  0  0  0  0  0  0
   27.5650   13.2280   20.1230 H   0  0  0  0  0  0  0  0  0  0  0  0
   27.3880   15.4400   18.9770 H   0  0  0  0  0  0  0  0  0  0  0  0
   29.0710   14.9750   19.3260 H   0  0  0  0  0  0  0  0  0  0  0  0
   27.3980   16.9400   20.9580 H   0  0  0  0  0  0  0  0  0  0  0  0
   28.6840   17.3750   19.8070 H   0  0  0  0  0  0  0  0  0  0  0  0
   29.0840   16.4810   21.2930 H   0  0  0  0  0  0  0  0  0  0  0  0
   30.8780   11.6160   20.9810 H   0  0  0  0  0  0  0  0  0  0  0  0
   29.3570   11.9340   20.1130 H   0  0  0  0  0  0  0  0  0  0  0  0
   29.5810   11.0170   23.0230 H   0  0  0  0  0  0  0  0  0  0  0  0
   29.1390    9.9880   21.6390 H   0  0  0  0  0  0  0  0  0  0  0  0
   28.0640   11.3160   22.1400 H   0  0  0  0  0  0  0  0  0  0  0  0
   26.2710   18.0690   25.6720 H   0  0  0  0  0  0  0  0  0  0  0  0
   24.8680   17.3920   26.5320 H   0  0  0  0  0  0  0  0  0  0  0  0
   24.6370   18.2530   24.9910 H   0  0  0  0  0  0  0  0  0  0  0  0
   21.5590   11.6320   22.6750 H   0  0  0  0  0  0  0  0  0  0  0  0
   22.8460    9.8930   24.7200 H   0  0  0  0  0  0  0  0  0  0  0  0
   22.1500    9.5880   21.5170 H   0  0  0  0  0  0  0  0  0  0  0  0
   23.7000    9.4700   22.3840 H   0  0  0  0  0  0  0  0  0  0  0  0
   25.5350    9.8040   21.0090 H   0  0  0  0  0  0  0  0  0  0  0  0
   25.5190   12.7880   17.8680 H   0  0  0  0  0  0  0  0  0  0  0  0
   21.9790   12.1870   20.2960 H   0  0  0  0  0  0  0  0  0  0  0  0
   21.8870   12.0400   25.5590 H   0  0  0  0  0  0  0  0  0  0  0  0
   20.1310   12.5240   24.0180 H   0  0  0  0  0  0  0  0  0  0  0  0
   19.3030   10.9880   24.3720 H   0  0  0  0  0  0  0  0  0  0  0  0
   18.3330   10.8050   26.9100 H   0  0  0  0  0  0  0  0  0  0  0  0
   18.5560   12.2730   27.8920 H   0  0  0  0  0  0  0  0  0  0  0  0
   20.9840   11.9560   27.8830 H   0  0  0  0  0  0  0  0  0  0  0  0
   20.1920   10.4700   28.4590 H   0  0  0  0  0  0  0  0  0  0  0  0
   17.8990   13.4430   24.3910 H   0  0  0  0  0  0  0  0  0  0  0  0
   17.2780   13.5560   26.0550 H   0  0  0  0  0  0  0  0  0  0  0  0
   15.7340   11.8710   26.9520 H   0  0  0  0  0  0  0  0  0  0  0  0
   14.1280   10.0280   26.4800 H   0  0  0  0  0  0  0  0  0  0  0  0
   14.1880    8.8520   24.2760 H   0  0  0  0  0  0  0  0  0  0  0  0
   15.8660    9.5160   22.5540 H   0  0  0  0  0  0  0  0  0  0  0  0
   17.4700   11.3540   23.0190 H   0  0  0  0  0  0  0  0  0  0  0  0
  1  5  1  0  0  0  0
  1 15  2  0  0  0  0
  1 45  1  0  0  0  0
  2 30  1  0  0  0  0
  3 16  1  0  0  0  0
  3 17  1  0  0  0  0
  3 18  1  0  0  0  0
  4 16  2  0  0  0  0
  5  9  2  0  0  0  0
  5 16  1  0  0  0  0
  6 32  1  0  0  0  0
  7 24  1  0  0  0  0
  7 25  1  0  0  0  0
  7 46  1  0  0  0  0
  8 24  2  0  0  0  0
  9 12  1  0  0  0  0
  9 47  1  0  0  0  0
 10 34  1  0  0  0  0
 10 37  1  0  0  0  0
 10 48  1  0  0  0  0
 10 49  1  0  0  0  0
 11 26  1  0  0  0  0
 11 50  1  0  0  0  0
 12 14  2  0  0  0  0
 12 24  1  0  0  0  0
 13 35  1  0  0  0  0
 13 36  1  0  0  0  0
 13 38  1  0  0  0  0
 13 51  1  0  0  0  0
 14 15  1  0  0  0  0
 14 52  1  0  0  0  0
 15 23  1  0  0  0  0
 17 21  1  0  0  0  0
 17 53  1  0  0  0  0
 17 54  1  0  0  0  0
 18 19  1  0  0  0  0
 18 55  1  0  0  0  0
 18 56  1  0  0  0  0
 19 20  1  0  0  0  0
 19 57  1  0  0  0  0
 19 58  1  0  0  0  0
 20 59  1  0  0  0  0
 20 60  1  0  0  0  0
 20 61  1  0  0  0  0
 21 22  1  0  0  0  0
 21 62  1  0  0  0  0
 21 63  1  0  0  0  0
 22 64  1  0  0  0  0
 22 65  1  0  0  0  0
 22 66  1  0  0  0  0
 23 67  1  0  0  0  0
 23 68  1  0  0  0  0
 23 69  1  0  0  0  0
 25 26  1  0  0  0  0
 25 27  1  0  0  0  0
 25 70  1  0  0  0  0
 26 34  1  0  0  0  0
 26 71  1  0  0  0  0
 27 28  1  0  0  0  0
 27 72  1  0  0  0  0
 27 73  1  0  0  0  0
 28 29  1  0  0  0  0
 28 33  2  0  0  0  0
 29 30  2  0  0  0  0
 29 74  1  0  0  0  0
 30 31  1  0  0  0  0
 31 32  2  0  0  0  0
 31 75  1  0  0  0  0
 32 33  1  0  0  0  0
 33 76  1  0  0  0  0
 34 35  1  0  0  0  0
 34 77  1  0  0  0  0
 35 78  1  0  0  0  0
 35 79  1  0  0  0  0
 36 37  1  0  0  0  0
 36 80  1  0  0  0  0
 36 81  1  0  0  0  0
 37 82  1  0  0  0  0
 37 83  1  0  0  0  0
 38 39  1  0  0  0  0
 38 84  1  0  0  0  0
 38 85  1  0  0  0  0
 39 40  1  0  0  0  0
 39 44  2  0  0  0  0
 40 41  2  0  0  0  0
 40 86  1  0  0  0  0
 41 42  1  0  0  0  0
 41 87  1  0  0  0  0
 42 43  2  0  0  0  0
 42 88  1  0  0  0  0
 43 44  1  0  0  0  0
 43 89  1  0  0  0  0
 44 90  1  0  0  0  0
M  CHG  1  10   1
M  CHG  1  13   1
M  END
>  <PARENT_CMPD_ID>
3LPJ

>  <STANDARD_TYPE>
IC50

>  <RELATION>
=

>  <STANDARD_VALUE>
0.12

>  <STANDARD_UNITS>
uM

>  <COMPOUND_KEY>
12

>  <PUBMED_ID>
20347593

>  <JOURNAL>
Bioorg.Med.Chem.Lett.

>  <YEAR>
2010

>  <VOLUME>
20

>  <FIRST_PAGE>
2837

>  <Company>
Merck

>  <Resolution>
1.79

>  <idx>
104

>  <Model>
Train

>  <target>
6.9208188

>  <des_pred_mlr>
7.5889802

>  <RF_Canvas>
7.2573819

>  <DNN_Canvas>
7.012939

>  <pred_CoMFA>
7.6041002

>  <pred_COMSIA>
8.0543003

>  <pred_abm5>
7.8241291

>  <pred_ff8>
6.7363009

>  <pred_gau6>
7.2169061

>  <CID>
BACE_104

>  <active>
0

>  <des_class_bayes>
1

>  <maacs_class_bayes>
1

>  <radial_class_bayes>
0

>  <dend_class_bayes>
0

>  <molprint_class_bayes>
0

>  <RF_canvas>
0

>  <DNN_canvas>
1

$$$$
4DVF_10749
  MOE2015           3D

163167  0  0  1  0  0  0  0  0999 V2000
   29.0750    9.5580   20.2560 C   0  0  0  0  0  0  0  0  0  0  0  0
   32.3900    8.3120   24.0410 C   0  0  0  0  0  0  0  0  0  0  0  0
   30.9110    8.0830   24.0900 C   0  0  0  0  0  0  0  0  0  0  0  0
   32.9990    9.2580   23.0720 C   0  0  0  0  0  0  0  0  0  0  0  0
   30.0230    8.8300   23.1440 C   0  0  0  0  0  0  0  0  0  0  0  0
   32.1160   10.0020   22.1290 C   0  0  0  0  0  0  0  0  0  0  0  0
   28.7130   11.1650   22.0770 N   0  0  0  0  0  0  0  0  0  0  0  0
   30.6320    9.7710   22.1690 C   0  0  0  0  0  0  0  0  0  0  0  0
   29.7130   10.5210   21.2240 C   0  0  3  0  0  0  0  0  0  0  0  0
   29.4950   17.0480   25.6240 C   0  0  0  0  0  0  0  0  0  0  0  0
   29.5710   13.3250   21.7520 O   0  0  0  0  0  0  0  0  0  0  0  0
   22.9220   13.4070   23.5900 O   0  0  0  0  0  0  0  0  0  0  0  0
   29.1930   14.7260   26.8310 O   0  0  0  0  0  0  0  0  0  0  0  0
   28.2600   16.6990   27.9600 O   0  0  0  0  0  0  0  0  0  0  0  0
   27.9770   14.2500   24.2040 C   0  0  0  0  0  0  0  0  0  0  0  0
   25.4410   14.2500   24.9450 C   0  0  0  0  0  0  0  0  0  0  0  0
   26.3000   12.6380   23.0700 C   0  0  0  0  0  0  0  0  0  0  0  0
   27.0460   15.7880   26.0610 N   0  0  0  0  0  0  0  0  0  0  0  0
   28.7520   12.5870   22.2870 C   0  0  0  0  0  0  0  0  0  0  0  0
   23.8500   12.6230   23.7080 C   0  0  0  0  0  0  0  0  0  0  0  0
   26.8500   14.7530   25.0740 C   0  0  3  0  0  0  0  0  0  0  0  0
   27.6870   13.1770   23.1980 C   0  0  3  0  0  0  0  0  0  0  0  0
   25.2200   13.1900   23.9490 C   0  0  3  0  0  0  0  0  0  0  0  0
   28.5130   15.9920   26.7010 S   0  0  0  0  0  0  0  0  0  0  0  0
   23.7730   11.1810   23.5530 N   0  0  0  0  0  0  0  0  0  0  0  0
   22.5100   10.5550   23.2310 C   0  0  3  0  0  0  0  0  0  0  0  0
   22.7930    9.6890   22.0270 C   0  0  0  0  0  0  0  0  0  0  0  0
   23.6440   10.4200   20.9910 C   0  0  0  0  0  0  0  0  0  0  0  0
   23.4320   11.8560   20.6130 C   0  0  0  0  0  0  0  0  0  0  0  0
   24.7100    9.6780   20.2710 C   0  0  0  0  0  0  0  0  0  0  0  0
   24.2800   12.4890   19.5610 C   0  0  0  0  0  0  0  0  0  0  0  0
   25.5560   10.3060   19.2300 C   0  0  0  0  0  0  0  0  0  0  0  0
   25.3430   11.7240   18.8590 C   0  0  0  0  0  0  0  0  0  0  0  0
   22.0380    9.7560   24.4480 C   0  0  3  0  0  0  0  0  0  0  0  0
   22.9420    8.7910   24.8600 O   0  0  0  0  0  0  0  0  0  0  0  0
   21.3660   10.6030   25.5470 C   0  0  0  0  0  0  0  0  0  0  0  0
   20.0430   11.2260   25.0640 C   0  0  0  0  0  0  0  0  0  0  0  0
   19.9380   12.3860   24.6580 O   0  0  0  0  0  0  0  0  0  0  0  0
   18.8900   10.3200   25.1290 N   0  0  0  0  0  0  0  0  0  0  0  0
   17.6030   10.8070   24.7230 C   0  0  3  0  0  0  0  0  0  0  0  0
   17.2780   11.9740   25.5960 C   0  0  0  0  0  0  0  0  0  0  0  0
   17.5020   11.9620   26.7850 O   0  0  0  0  0  0  0  0  0  0  0  0
   16.5760    9.7060   24.9780 C   0  0  0  0  0  0  0  0  0  0  0  0
   15.1580   10.1750   24.6450 C   0  0  0  0  0  0  0  0  0  0  0  0
   14.9900   10.2340   23.1540 C   0  0  0  0  0  0  0  0  0  0  0  0
   14.2010    9.1460   25.2260 C   0  0  0  0  0  0  0  0  0  0  0  0
   16.6270   13.1120   24.9850 N   0  0  0  0  0  0  0  0  0  0  0  0
   16.2230   14.2380   25.7740 C   0  0  3  0  0  0  0  0  0  0  0  0
   14.7000   14.2410   25.9020 C   0  0  0  0  0  0  0  0  0  0  0  0
   14.0250   13.7670   25.0070 O   0  0  0  0  0  0  0  0  0  0  0  0
   16.5810   15.5000   25.0200 C   0  0  0  0  0  0  0  0  0  0  0  0
   14.0490   14.8270   27.0550 N   0  0  0  0  0  0  0  0  0  0  0  0
   12.5970   14.8600   27.0960 C   0  0  3  0  0  0  0  0  0  0  0  0
   12.0250   14.2930   28.3510 C   0  0  0  0  0  0  0  0  0  0  0  0
   11.5150   14.9980   29.1940 O   0  0  0  0  0  0  0  0  0  0  0  0
   12.0980   16.2950   26.9780 C   0  0  0  0  0  0  0  0  0  0  0  0
   12.6240   16.9300   25.6840 C   0  0  0  0  0  0  0  0  0  0  0  0
   12.0300   16.5670   24.3700 C   0  0  0  0  0  0  0  0  0  0  0  0
   13.7310   17.9360   25.7400 C   0  0  0  0  0  0  0  0  0  0  0  0
   12.5450   17.1810   23.1070 C   0  0  0  0  0  0  0  0  0  0  0  0
   14.2320   18.5560   24.4660 C   0  0  0  0  0  0  0  0  0  0  0  0
   13.6460   18.1770   23.1530 C   0  0  0  0  0  0  0  0  0  0  0  0
   14.8170   15.3930   28.1360 C   0  0  0  0  0  0  0  0  0  0  0  0
   11.3370   13.6590   33.2280 C   0  0  0  0  0  0  0  0  0  0  0  0
   13.1180   13.1760   31.2680 O   0  0  0  0  0  0  0  0  0  0  0  0
   12.1860   10.5760   28.1420 C   0  0  0  0  0  0  0  0  0  0  0  0
   11.9550   10.7830   29.6170 C   0  0  0  0  0  0  0  0  0  0  0  0
   12.6720   11.9100   27.6230 C   0  0  0  0  0  0  0  0  0  0  0  0
   10.9810   13.0960   31.9940 O   0  0  0  0  0  0  0  0  0  0  0  0
   11.9630   12.7970   31.0600 C   0  0  0  0  0  0  0  0  0  0  0  0
   11.5470   12.1970   29.7330 C   0  0  3  0  0  0  0  0  0  0  0  0
   12.0950   12.8670   28.5510 N   0  0  0  0  0  0  0  0  0  0  0  0
   28.4170   10.1040   19.5810 H   0  0  0  0  0  0  0  0  0  0  0  0
   28.4960    8.8180   20.8080 H   0  0  0  0  0  0  0  0  0  0  0  0
   29.8510    9.0550   19.6790 H   0  0  0  0  0  0  0  0  0  0  0  0
   32.8450    7.3400   23.8490 H   0  0  0  0  0  0  0  0  0  0  0  0
   32.6800    8.6590   25.0330 H   0  0  0  0  0  0  0  0  0  0  0  0
   30.5830    8.3340   25.0990 H   0  0  0  0  0  0  0  0  0  0  0  0
   30.7470    7.0210   23.9080 H   0  0  0  0  0  0  0  0  0  0  0  0
   33.7010    8.6850   22.4660 H   0  0  0  0  0  0  0  0  0  0  0  0
   33.5430   10.0020   23.6530 H   0  0  0  0  0  0  0  0  0  0  0  0
   29.3250    9.4070   23.7510 H   0  0  0  0  0  0  0  0  0  0  0  0
   29.4740    8.0860   22.5680 H   0  0  0  0  0  0  0  0  0  0  0  0
   32.4490    9.7550   21.1210 H   0  0  0  0  0  0  0  0  0  0  0  0
   32.2770   11.0640   22.3140 H   0  0  0  0  0  0  0  0  0  0  0  0
   27.9940   10.6100   22.5190 H   0  0  0  0  0  0  0  0  0  0  0  0
   30.7310    8.9640   21.4430 H   0  0  0  0  0  0  0  0  0  0  0  0
   30.2460   11.2590   20.6240 H   0  0  0  0  0  0  0  0  0  0  0  0
   30.4860   17.1860   26.0560 H   0  0  0  0  0  0  0  0  0  0  0  0
   29.0060   18.0160   25.5200 H   0  0  0  0  0  0  0  0  0  0  0  0
   29.5880   16.5810   24.6440 H   0  0  0  0  0  0  0  0  0  0  0  0
   28.7490   13.8650   24.8700 H   0  0  0  0  0  0  0  0  0  0  0  0
   28.3660   15.1080   23.6550 H   0  0  0  0  0  0  0  0  0  0  0  0
   24.8090   15.0960   24.6760 H   0  0  0  0  0  0  0  0  0  0  0  0
   25.1360   13.8620   25.9170 H   0  0  0  0  0  0  0  0  0  0  0  0
   26.3550   11.5670   23.2660 H   0  0  0  0  0  0  0  0  0  0  0  0
   25.9880   12.8030   22.0390 H   0  0  0  0  0  0  0  0  0  0  0  0
   26.4150   15.5920   26.8250 H   0  0  0  0  0  0  0  0  0  0  0  0
   27.0670   13.9860   25.8180 H   0  0  0  0  0  0  0  0  0  0  0  0
   27.4640   13.9370   22.4490 H   0  0  0  0  0  0  0  0  0  0  0  0
   25.4200   12.4240   24.6990 H   0  0  0  0  0  0  0  0  0  0  0  0
   24.6020   10.6160   23.6700 H   0  0  0  0  0  0  0  0  0  0  0  0
   21.7110   11.2590   22.9970 H   0  0  0  0  0  0  0  0  0  0  0  0
   21.8470    9.4030   21.5680 H   0  0  0  0  0  0  0  0  0  0  0  0
   23.3240    8.7950   22.3530 H   0  0  0  0  0  0  0  0  0  0  0  0
   24.3540   10.7150   21.7640 H   0  0  0  0  0  0  0  0  0  0  0  0
   23.5690   12.4430   21.5210 H   0  0  0  0  0  0  0  0  0  0  0  0
   22.3990   11.9430   20.2770 H   0  0  0  0  0  0  0  0  0  0  0  0
   24.2180    8.8320   19.7910 H   0  0  0  0  0  0  0  0  0  0  0  0
   25.3940    9.3130   21.0370 H   0  0  0  0  0  0  0  0  0  0  0  0
   24.7730   13.3390   20.0330 H   0  0  0  0  0  0  0  0  0  0  0  0
   23.5980   12.8470   18.7900 H   0  0  0  0  0  0  0  0  0  0  0  0
   25.4240    9.7200   18.3210 H   0  0  0  0  0  0  0  0  0  0  0  0
   26.5880   10.2210   19.5700 H   0  0  0  0  0  0  0  0  0  0  0  0
   26.2840   12.2470   19.0330 H   0  0  0  0  0  0  0  0  0  0  0  0
   25.1060   11.7460   17.7950 H   0  0  0  0  0  0  0  0  0  0  0  0
   21.1960    9.1550   24.1030 H   0  0  0  0  0  0  0  0  0  0  0  0
   23.7240    9.2450   25.1830 H   0  0  0  0  0  0  0  0  0  0  0  0
   22.0460   11.4030   25.8400 H   0  0  0  0  0  0  0  0  0  0  0  0
   21.1620    9.9660   26.4080 H   0  0  0  0  0  0  0  0  0  0  0  0
   19.0010    9.3700   25.4540 H   0  0  0  0  0  0  0  0  0  0  0  0
   17.5960   11.0910   23.6710 H   0  0  0  0  0  0  0  0  0  0  0  0
   16.6170    9.4200   26.0290 H   0  0  0  0  0  0  0  0  0  0  0  0
   16.8190    8.8440   24.3570 H   0  0  0  0  0  0  0  0  0  0  0  0
   14.9640   11.1650   25.0570 H   0  0  0  0  0  0  0  0  0  0  0  0
   15.1820    9.2490   22.7280 H   0  0  0  0  0  0  0  0  0  0  0  0
   15.6940   10.9540   22.7370 H   0  0  0  0  0  0  0  0  0  0  0  0
   13.9720   10.5420   22.9150 H   0  0  0  0  0  0  0  0  0  0  0  0
   14.4160    8.1670   24.7980 H   0  0  0  0  0  0  0  0  0  0  0  0
   13.1750    9.4290   24.9880 H   0  0  0  0  0  0  0  0  0  0  0  0
   14.3250    9.1050   26.3080 H   0  0  0  0  0  0  0  0  0  0  0  0
   16.4550   13.1130   23.9900 H   0  0  0  0  0  0  0  0  0  0  0  0
   16.7060   14.1870   26.7500 H   0  0  0  0  0  0  0  0  0  0  0  0
   16.0750   15.5030   24.0550 H   0  0  0  0  0  0  0  0  0  0  0  0
   17.6590   15.5370   24.8650 H   0  0  0  0  0  0  0  0  0  0  0  0
   16.2670   16.3700   25.5970 H   0  0  0  0  0  0  0  0  0  0  0  0
   12.2680   14.2460   26.2570 H   0  0  0  0  0  0  0  0  0  0  0  0
   12.4520   16.8720   27.8330 H   0  0  0  0  0  0  0  0  0  0  0  0
   11.0080   16.2980   26.9640 H   0  0  0  0  0  0  0  0  0  0  0  0
   11.8950   17.7330   25.7870 H   0  0  0  0  0  0  0  0  0  0  0  0
   10.9700   16.8150   24.4280 H   0  0  0  0  0  0  0  0  0  0  0  0
   12.1460   15.4890   24.2620 H   0  0  0  0  0  0  0  0  0  0  0  0
   14.5830   17.4440   26.2100 H   0  0  0  0  0  0  0  0  0  0  0  0
   13.3860   18.7520   26.3760 H   0  0  0  0  0  0  0  0  0  0  0  0
   11.6970   17.6730   22.6290 H   0  0  0  0  0  0  0  0  0  0  0  0
   12.8910   16.3610   22.4780 H   0  0  0  0  0  0  0  0  0  0  0  0
   15.2970   18.3300   24.4080 H   0  0  0  0  0  0  0  0  0  0  0  0
   14.0940   19.6320   24.5690 H   0  0  0  0  0  0  0  0  0  0  0  0
   13.2660   19.0920   22.6990 H   0  0  0  0  0  0  0  0  0  0  0  0
   14.4590   17.7800   22.5450 H   0  0  0  0  0  0  0  0  0  0  0  0
   15.8800   15.2740   27.9270 H   0  0  0  0  0  0  0  0  0  0  0  0
   14.5700   14.8800   29.0650 H   0  0  0  0  0  0  0  0  0  0  0  0
   14.5820   16.4530   28.2330 H   0  0  0  0  0  0  0  0  0  0  0  0
   10.4400   13.8230   33.8250 H   0  0  0  0  0  0  0  0  0  0  0  0
   11.8410   14.6110   33.0610 H   0  0  0  0  0  0  0  0  0  0  0  0
   12.0070   12.9810   33.7570 H   0  0  0  0  0  0  0  0  0  0  0  0
   11.2580   10.2890   27.6470 H   0  0  0  0  0  0  0  0  0  0  0  0
   12.9390    9.8050   27.9780 H   0  0  0  0  0  0  0  0  0  0  0  0
   12.8700   10.5990   30.1800 H   0  0  0  0  0  0  0  0  0  0  0  0
   11.1660   10.1240   29.9800 H   0  0  0  0  0  0  0  0  0  0  0  0
   12.3140   12.0870   26.6090 H   0  0  0  0  0  0  0  0  0  0  0  0
   13.7610   11.9610   27.6380 H   0  0  0  0  0  0  0  0  0  0  0  0
   10.4640   12.3190   29.7440 H   0  0  0  0  0  0  0  0  0  0  0  0
  1  9  1  0  0  0  0
  1 73  1  0  0  0  0
  1 74  1  0  0  0  0
  1 75  1  0  0  0  0
  2  3  1  0  0  0  0
  2  4  1  0  0  0  0
  2 76  1  0  0  0  0
  2 77  1  0  0  0  0
  3  5  1  0  0  0  0
  3 78  1  0  0  0  0
  3 79  1  0  0  0  0
  4  6  1  0  0  0  0
  4 80  1  0  0  0  0
  4 81  1  0  0  0  0
  5  8  1  0  0  0  0
  5 82  1  0  0  0  0
  5 83  1  0  0  0  0
  6  8  1  0  0  0  0
  6 84  1  0  0  0  0
  6 85  1  0  0  0  0
  7  9  1  0  0  0  0
  7 19  1  0  0  0  0
  7 86  1  0  0  0  0
  8  9  1  0  0  0  0
  8 87  1  0  0  0  0
  9 88  1  0  0  0  0
 10 24  1  0  0  0  0
 10 89  1  0  0  0  0
 10 90  1  0  0  0  0
 10 91  1  0  0  0  0
 11 19  2  0  0  0  0
 12 20  2  0  0  0  0
 13 24  2  0  0  0  0
 14 24  2  0  0  0  0
 15 21  1  0  0  0  0
 15 22  1  0  0  0  0
 15 92  1  0  0  0  0
 15 93  1  0  0  0  0
 16 21  1  0  0  0  0
 16 23  1  0  0  0  0
 16 94  1  0  0  0  0
 16 95  1  0  0  0  0
 17 22  1  0  0  0  0
 17 23  1  0  0  0  0
 17 96  1  0  0  0  0
 17 97  1  0  0  0  0
 18 21  1  0  0  0  0
 18 24  1  0  0  0  0
 18 98  1  0  0  0  0
 19 22  1  0  0  0  0
 20 23  1  0  0  0  0
 20 25  1  0  0  0  0
 21 99  1  0  0  0  0
 22100  1  0  0  0  0
 23101  1  0  0  0  0
 25 26  1  0  0  0  0
 25102  1  0  0  0  0
 26 27  1  0  0  0  0
 26 34  1  0  0  0  0
 26103  1  0  0  0  0
 27 28  1  0  0  0  0
 27104  1  0  0  0  0
 27105  1  0  0  0  0
 28 29  1  0  0  0  0
 28 30  1  0  0  0  0
 28106  1  0  0  0  0
 29 31  1  0  0  0  0
 29107  1  0  0  0  0
 29108  1  0  0  0  0
 30 32  1  0  0  0  0
 30109  1  0  0  0  0
 30110  1  0  0  0  0
 31 33  1  0  0  0  0
 31111  1  0  0  0  0
 31112  1  0  0  0  0
 32 33  1  0  0  0  0
 32113  1  0  0  0  0
 32114  1  0  0  0  0
 33115  1  0  0  0  0
 33116  1  0  0  0  0
 34 35  1  0  0  0  0
 34 36  1  0  0  0  0
 34117  1  0  0  0  0
 35118  1  0  0  0  0
 36 37  1  0  0  0  0
 36119  1  0  0  0  0
 36120  1  0  0  0  0
 37 38  2  0  0  0  0
 37 39  1  0  0  0  0
 39 40  1  0  0  0  0
 39121  1  0  0  0  0
 40 41  1  0  0  0  0
 40 43  1  0  0  0  0
 40122  1  0  0  0  0
 41 42  2  0  0  0  0
 41 47  1  0  0  0  0
 43 44  1  0  0  0  0
 43123  1  0  0  0  0
 43124  1  0  0  0  0
 44 45  1  0  0  0  0
 44 46  1  0  0  0  0
 44125  1  0  0  0  0
 45126  1  0  0  0  0
 45127  1  0  0  0  0
 45128  1  0  0  0  0
 46129  1  0  0  0  0
 46130  1  0  0  0  0
 46131  1  0  0  0  0
 47 48  1  0  0  0  0
 47132  1  0  0  0  0
 48 49  1  0  0  0  0
 48 51  1  0  0  0  0
 48133  1  0  0  0  0
 49 50  2  0  0  0  0
 49 52  1  0  0  0  0
 51134  1  0  0  0  0
 51135  1  0  0  0  0
 51136  1  0  0  0  0
 52 53  1  0  0  0  0
 52 63  1  0  0  0  0
 53 54  1  0  0  0  0
 53 56  1  0  0  0  0
 53137  1  0  0  0  0
 54 55  2  0  0  0  0
 54 72  1  0  0  0  0
 56 57  1  0  0  0  0
 56138  1  0  0  0  0
 56139  1  0  0  0  0
 57 58  1  0  0  0  0
 57 59  1  0  0  0  0
 57140  1  0  0  0  0
 58 60  1  0  0  0  0
 58141  1  0  0  0  0
 58142  1  0  0  0  0
 59 61  1  0  0  0  0
 59143  1  0  0  0  0
 59144  1  0  0  0  0
 60 62  1  0  0  0  0
 60145  1  0  0  0  0
 60146  1  0  0  0  0
 61 62  1  0  0  0  0
 61147  1  0  0  0  0
 61148  1  0  0  0  0
 62149  1  0  0  0  0
 62150  1  0  0  0  0
 63151  1  0  0  0  0
 63152  1  0  0  0  0
 63153  1  0  0  0  0
 64 69  1  0  0  0  0
 64154  1  0  0  0  0
 64155  1  0  0  0  0
 64156  1  0  0  0  0
 65 70  2  0  0  0  0
 66 67  1  0  0  0  0
 66 68  1  0  0  0  0
 66157  1  0  0  0  0
 66158  1  0  0  0  0
 67 71  1  0  0  0  0
 67159  1  0  0  0  0
 67160  1  0  0  0  0
 68 72  1  0  0  0  0
 68161  1  0  0  0  0
 68162  1  0  0  0  0
 69 70  1  0  0  0  0
 70 71  1  0  0  0  0
 71 72  1  0  0  0  0
 71163  1  0  0  0  0
M  END
>  <PARENT_CMPD_ID>
4DVF

>  <STANDARD_TYPE>
IC50

>  <RELATION>
=

>  <STANDARD_VALUE>
0.12800001

>  <STANDARD_UNITS>
uM

>  <COMPOUND_KEY>
12

>  <PUBMED_ID>
23181502

>  <JOURNAL>
J.Med.Chem.

>  <YEAR>
2012

>  <VOLUME>
55

>  <FIRST_PAGE>
10749

>  <Company>
SHCNC

>  <Resolution>
1.8

>  <idx>
105

>  <Model>
Train

>  <target>
6.8927898

>  <des_pred_mlr>
10.1116

>  <RF_Canvas>
7.0632501

>  <DNN_Canvas>
6.2526455

>  <pred_CoMFA>
6.9077001

>  <pred_COMSIA>
6.7869

>  <pred_abm5>
6.2467442

>  <pred_ff8>
7.2445669

>  <pred_gau6>
6.8148499

>  <CID>
BACE_105

>  <active>
0

>  <des_class_bayes>
1

>  <maacs_class_bayes>
1

>  <radial_class_bayes>
0

>  <dend_class_bayes>
0

>  <molprint_class_bayes>
0

>  <RF_canvas>
0

>  <DNN_canvas>
0

$$$$
4D85_3364
  MOE2015           3D

 79 83  0  0  1  0  0  0  0  0999 V2000
   29.1230   10.6420   22.5040 F   0  0  0  0  0  0  0  0  0  0  0  0
   29.0930   11.3180   21.3270 C   0  0  0  0  0  0  0  0  0  0  0  0
   28.6590   10.2950   20.2180 C   0  0  0  0  0  0  0  0  0  0  0  0
   27.9080    9.6320   20.6480 H   0  0  0  0  0  0  0  0  0  0  0  0
   29.5370    9.7140   19.9350 H   0  0  0  0  0  0  0  0  0  0  0  0
   28.0590   10.9230   18.9190 C   0  0  0  0  0  0  0  0  0  0  0  0
   27.4670   10.1560   18.4210 H   0  0  0  0  0  0  0  0  0  0  0  0
   28.8890   11.2150   18.2760 H   0  0  0  0  0  0  0  0  0  0  0  0
   27.1410   12.1830   19.1210 C   0  0  0  0  0  0  0  0  0  0  0  0
   26.9410   12.9440   17.7480 C   0  0  0  0  0  0  0  0  0  0  0  0
   27.1580   12.2870   16.9060 H   0  0  0  0  0  0  0  0  0  0  0  0
   27.5820   13.8240   17.6960 H   0  0  0  0  0  0  0  0  0  0  0  0
   25.5380   13.3270   17.7560 N   0  0  0  0  0  0  0  0  0  0  0  0
   25.1440   14.0490   17.1690 H   0  0  0  0  0  0  0  0  0  0  0  0
   24.8310   12.6050   18.6370 C   0  0  0  0  0  0  0  0  0  0  0  0
   25.6650   11.8680   19.4890 C   0  0  0  0  0  0  0  0  0  0  0  0
   25.0670   11.0370   20.4670 C   0  0  0  0  0  0  0  0  0  0  0  0
   25.6910   10.4520   21.1260 H   0  0  0  0  0  0  0  0  0  0  0  0
   23.6520   10.9660   20.5890 C   0  0  0  0  0  0  0  0  0  0  0  0
   22.8300   11.7350   19.7150 C   0  0  0  0  0  0  0  0  0  0  0  0
   21.7550   11.6860   19.8050 H   0  0  0  0  0  0  0  0  0  0  0  0
   23.4210   12.5650   18.7270 C   0  0  0  0  0  0  0  0  0  0  0  0
   22.6710   13.2970   17.9000 F   0  0  0  0  0  0  0  0  0  0  0  0
   23.0200   10.0690   21.6740 C   0  0  0  0  0  0  0  0  0  0  0  0
   23.7730    9.3580   22.0140 H   0  0  0  0  0  0  0  0  0  0  0  0
   22.1850    9.5280   21.2290 H   0  0  0  0  0  0  0  0  0  0  0  0
   22.4900   10.8610   22.9170 C   0  0  3  0  0  0  0  0  0  0  0  0
   21.6550   11.4260   22.5030 H   0  0  0  0  0  0  0  0  0  0  0  0
   21.8850   10.0350   24.0950 C   0  0  3  0  0  0  0  0  0  0  0  0
   22.7390    9.4460   24.4300 H   0  0  0  0  0  0  0  0  0  0  0  0
   21.2680   10.9530   25.1950 C   0  0  3  0  0  0  0  0  0  0  0  0
   20.5530   11.5610   24.6410 H   0  0  0  0  0  0  0  0  0  0  0  0
   22.2560   11.9490   25.8430 C   0  0  0  0  0  0  0  0  0  0  0  0
   23.0830   11.4080   26.3030 H   0  0  0  0  0  0  0  0  0  0  0  0
   21.7440   12.5440   26.6000 H   0  0  0  0  0  0  0  0  0  0  0  0
   22.8690   13.0130   24.5370 S   0  0  0  0  0  0  0  0  0  0  0  0
   23.6220   11.7590   23.5010 C   0  0  0  0  0  0  0  0  0  0  0  0
   24.1720   12.2340   22.6880 H   0  0  0  0  0  0  0  0  0  0  0  0
   24.3050   11.1510   24.0950 H   0  0  0  0  0  0  0  0  0  0  0  0
   21.7920   13.6410   23.8060 O   0  0  0  0  0  0  0  0  0  0  0  0
   23.8880   13.8480   25.1040 O   0  0  0  0  0  0  0  0  0  0  0  0
   20.5260   10.1980   26.2300 N   0  3  0  0  0  0  0  0  0  0  0  0
   21.2240    9.7410   26.7990 H   0  0  0  0  0  0  0  0  0  0  0  0
   19.9850    9.5020   25.7370 H   0  0  0  0  0  0  0  0  0  0  0  0
   19.5860   10.8600   27.1780 C   0  0  0  0  0  0  0  0  0  0  0  0
   20.1090   11.6330   27.7410 H   0  0  0  0  0  0  0  0  0  0  0  0
   19.1750   10.1240   27.8690 H   0  0  0  0  0  0  0  0  0  0  0  0
   18.4490   11.4930   26.3450 C   0  0  0  0  0  0  0  0  0  0  0  0
   17.5420   10.6830   25.6220 C   0  0  0  0  0  0  0  0  0  0  0  0
   17.6560    9.6100   25.6620 H   0  0  0  0  0  0  0  0  0  0  0  0
   16.4850   11.2320   24.8450 C   0  0  0  0  0  0  0  0  0  0  0  0
   16.3900   12.6530   24.8240 C   0  0  0  0  0  0  0  0  0  0  0  0
   15.6060   13.1130   24.2410 H   0  0  0  0  0  0  0  0  0  0  0  0
   17.2850   13.4830   25.5380 C   0  0  0  0  0  0  0  0  0  0  0  0
   17.1790   14.5570   25.5000 H   0  0  0  0  0  0  0  0  0  0  0  0
   18.3160   12.8990   26.2990 C   0  0  0  0  0  0  0  0  0  0  0  0
   19.0040   13.5250   26.8470 H   0  0  0  0  0  0  0  0  0  0  0  0
   15.4810   10.3220   24.0570 C   0  0  0  0  0  0  0  0  0  0  0  0
   14.8120    9.3550   25.0810 C   0  0  0  0  0  0  0  0  0  0  0  0
   14.3250    9.9360   25.8640 H   0  0  0  0  0  0  0  0  0  0  0  0
   15.5730    8.7130   25.5250 H   0  0  0  0  0  0  0  0  0  0  0  0
   14.0710    8.7410   24.5700 H   0  0  0  0  0  0  0  0  0  0  0  0
   14.3450   11.1090   23.3260 C   0  0  0  0  0  0  0  0  0  0  0  0
   13.8010   11.7180   24.0490 H   0  0  0  0  0  0  0  0  0  0  0  0
   13.6590   10.4040   22.8560 H   0  0  0  0  0  0  0  0  0  0  0  0
   14.7820   11.7540   22.5640 H   0  0  0  0  0  0  0  0  0  0  0  0
   16.1820    9.4950   22.9300 C   0  0  0  0  0  0  0  0  0  0  0  0
   16.9960    8.9110   23.3600 H   0  0  0  0  0  0  0  0  0  0  0  0
   16.5810   10.1740   22.1760 H   0  0  0  0  0  0  0  0  0  0  0  0
   15.4580    8.8240   22.4680 H   0  0  0  0  0  0  0  0  0  0  0  0
   20.7730    9.2050   23.7250 O   0  0  0  0  0  0  0  0  0  0  0  0
   20.0610    9.7830   23.4420 H   0  0  0  0  0  0  0  0  0  0  0  0
   27.7690   13.1820   20.1520 C   0  0  0  0  0  0  0  0  0  0  0  0
   27.0480   13.9790   20.3370 H   0  0  0  0  0  0  0  0  0  0  0  0
   28.6720   13.6040   19.7110 H   0  0  0  0  0  0  0  0  0  0  0  0
   28.1470   12.5440   21.5140 C   0  0  0  0  0  0  0  0  0  0  0  0
   28.6520   13.2910   22.1270 H   0  0  0  0  0  0  0  0  0  0  0  0
   27.2370   12.2160   22.0160 H   0  0  0  0  0  0  0  0  0  0  0  0
   30.3550   11.7910   21.0870 F   0  0  0  0  0  0  0  0  0  0  0  0
  1  2  1  0  0  0  0
  2  3  1  0  0  0  0
  2 76  1  0  0  0  0
  2 79  1  0  0  0  0
  3  4  1  0  0  0  0
  3  5  1  0  0  0  0
  3  6  1  0  0  0  0
  6  7  1  0  0  0  0
  6  8  1  0  0  0  0
  6  9  1  0  0  0  0
  9 10  1  0  0  0  0
  9 16  1  0  0  0  0
  9 73  1  0  0  0  0
 10 11  1  0  0  0  0
 10 12  1  0  0  0  0
 10 13  1  0  0  0  0
 13 14  1  0  0  0  0
 13 15  1  0  0  0  0
 15 16  1  0  0  0  0
 15 22  2  0  0  0  0
 16 17  2  0  0  0  0
 17 18  1  0  0  0  0
 17 19  1  0  0  0  0
 19 20  2  0  0  0  0
 19 24  1  0  0  0  0
 20 21  1  0  0  0  0
 20 22  1  0  0  0  0
 22 23  1  0  0  0  0
 24 25  1  0  0  0  0
 24 26  1  0  0  0  0
 24 27  1  0  0  0  0
 27 28  1  0  0  0  0
 27 29  1  0  0  0  0
 27 37  1  0  0  0  0
 29 30  1  0  0  0  0
 29 31  1  0  0  0  0
 29 71  1  0  0  0  0
 31 32  1  0  0  0  0
 31 33  1  0  0  0  0
 31 42  1  0  0  0  0
 33 34  1  0  0  0  0
 33 35  1  0  0  0  0
 33 36  1  0  0  0  0
 36 37  1  0  0  0  0
 36 40  2  0  0  0  0
 36 41  2  0  0  0  0
 37 38  1  0  0  0  0
 37 39  1  0  0  0  0
 42 43  1  0  0  0  0
 42 44  1  0  0  0  0
 42 45  1  0  0  0  0
 45 46  1  0  0  0  0
 45 47  1  0  0  0  0
 45 48  1  0  0  0  0
 48 49  1  0  0  0  0
 48 56  2  0  0  0  0
 49 50  1  0  0  0  0
 49 51  2  0  0  0  0
 51 52  1  0  0  0  0
 51 58  1  0  0  0  0
 52 53  1  0  0  0  0
 52 54  2  0  0  0  0
 54 55  1  0  0  0  0
 54 56  1  0  0  0  0
 56 57  1  0  0  0  0
 58 59  1  0  0  0  0
 58 63  1  0  0  0  0
 58 67  1  0  0  0  0
 59 60  1  0  0  0  0
 59 61  1  0  0  0  0
 59 62  1  0  0  0  0
 63 64  1  0  0  0  0
 63 65  1  0  0  0  0
 63 66  1  0  0  0  0
 67 68  1  0  0  0  0
 67 69  1  0  0  0  0
 67 70  1  0  0  0  0
 71 72  1  0  0  0  0
 73 74  1  0  0  0  0
 73 75  1  0  0  0  0
 73 76  1  0  0  0  0
 76 77  1  0  0  0  0
 76 78  1  0  0  0  0
M  CHG  1  42   1
M  END
>  <PARENT_CMPD_ID>
4D85

>  <STANDARD_TYPE>
IC50

>  <RELATION>
=

>  <STANDARD_VALUE>
0.14

>  <STANDARD_UNITS>
uM

>  <COMPOUND_KEY>
39a

>  <PUBMED_ID>
22380629

>  <JOURNAL>
J.Med.Chem.

>  <YEAR>
2012

>  <VOLUME>
55

>  <FIRST_PAGE>
3364

>  <Company>
Novartis

>  <Resolution>
2.6500001

>  <idx>
106

>  <Model>
Train

>  <target>
6.8538718

>  <des_pred_mlr>
7.4635501

>  <RF_Canvas>
7.3138723

>  <DNN_Canvas>
7.0754056

>  <pred_CoMFA>
7.5861001

>  <pred_COMSIA>
7.0408001

>  <pred_abm5>
6.9924617

>  <pred_ff8>
7.7066216

>  <pred_gau6>
7.2540684

>  <CID>
BACE_106

>  <active>
0

>  <des_class_bayes>
1

>  <maacs_class_bayes>
1

>  <radial_class_bayes>
0

>  <dend_class_bayes>
0

>  <molprint_class_bayes>
0

>  <RF_canvas>
0

>  <DNN_canvas>
1

$$$$
3UFL_240
  MOE2015           3D

 69 74  0  0  1  0  0  0  0  0999 V2000
   23.1190   10.7920   23.3400 C   0  0  3  0  0  0  0  0  0  0  0  0
   24.0470    9.7650   24.0020 C   0  0  0  0  0  0  0  0  0  0  0  0
   24.8390   10.2820   24.5440 H   0  0  0  0  0  0  0  0  0  0  0  0
   24.4880    9.1230   23.2390 H   0  0  0  0  0  0  0  0  0  0  0  0
   23.2460    8.9400   24.9500 N   0  3  0  0  0  0  0  0  0  0  0  0
   23.5430    9.1250   25.8980 H   0  0  0  0  0  0  0  0  0  0  0  0
   23.3750    7.9600   24.7420 H   0  0  0  0  0  0  0  0  0  0  0  0
   21.8140    9.3020   24.7930 C   0  0  0  0  0  0  0  0  0  0  0  0
   21.4800    9.9230   25.6240 H   0  0  0  0  0  0  0  0  0  0  0  0
   21.1940    8.4070   24.7360 H   0  0  0  0  0  0  0  0  0  0  0  0
   21.7580   10.0820   23.4800 C   0  0  3  0  0  0  0  0  0  0  0  0
   21.6310    9.4530   22.5990 H   0  0  0  0  0  0  0  0  0  0  0  0
   20.5280   10.9670   23.4490 C   0  0  0  0  0  0  0  0  0  0  0  0
   20.2870   11.6720   24.4220 O   0  0  0  0  0  0  0  0  0  0  0  0
   19.7410   10.9540   22.3500 N   0  0  0  0  0  0  0  0  0  0  0  0
   19.9450   10.1120   21.1560 C   0  0  0  0  0  0  0  0  0  0  0  0
   19.0130    9.6080   20.8980 H   0  0  0  0  0  0  0  0  0  0  0  0
   20.7160    9.3690   21.3580 H   0  0  0  0  0  0  0  0  0  0  0  0
   20.3850   11.0110   19.9960 C   0  0  0  0  0  0  0  0  0  0  0  0
   19.8960   10.6850   19.0780 H   0  0  0  0  0  0  0  0  0  0  0  0
   21.4660   10.9440   19.8750 H   0  0  0  0  0  0  0  0  0  0  0  0
   19.9930   12.4640   20.2950 C   0  0  3  0  0  0  0  0  0  0  0  0
   20.6740   12.8390   21.0590 H   0  0  0  0  0  0  0  0  0  0  0  0
   18.5900   12.5580   20.9280 C   0  0  0  0  0  0  0  0  0  0  0  0
   17.8620   12.1140   20.2490 H   0  0  0  0  0  0  0  0  0  0  0  0
   18.3420   13.6070   21.0910 H   0  0  0  0  0  0  0  0  0  0  0  0
   18.5420   11.8120   22.2770 C   0  0  3  0  0  0  0  0  0  0  0  0
   18.5470   12.5970   23.0330 H   0  0  0  0  0  0  0  0  0  0  0  0
   20.2260   13.3880   19.1190 C   0  0  0  0  0  0  0  0  0  0  0  0
   21.3670   14.2050   19.1150 C   0  0  0  0  0  0  0  0  0  0  0  0
   22.0540   14.1570   19.9470 H   0  0  0  0  0  0  0  0  0  0  0  0
   21.6340   15.0800   18.0580 C   0  0  0  0  0  0  0  0  0  0  0  0
   22.5170   15.7010   18.0730 H   0  0  0  0  0  0  0  0  0  0  0  0
   20.7460   15.1410   16.9840 C   0  0  0  0  0  0  0  0  0  0  0  0
   20.9360   15.8150   16.1620 H   0  0  0  0  0  0  0  0  0  0  0  0
   19.6090   14.3260   16.9760 C   0  0  0  0  0  0  0  0  0  0  0  0
   18.9250   14.3720   16.1420 H   0  0  0  0  0  0  0  0  0  0  0  0
   19.3500   13.4560   18.0310 C   0  0  0  0  0  0  0  0  0  0  0  0
   18.4690   12.8310   18.0090 H   0  0  0  0  0  0  0  0  0  0  0  0
   23.2080   12.0940   24.1760 C   0  0  0  0  0  0  0  0  0  0  0  0
   23.4410   11.8110   25.2030 H   0  0  0  0  0  0  0  0  0  0  0  0
   22.2300   12.5740   24.1440 H   0  0  0  0  0  0  0  0  0  0  0  0
   24.2480   13.1310   23.7330 C   0  0  0  0  0  0  0  0  0  0  0  0
   25.2460   12.6950   23.7790 H   0  0  0  0  0  0  0  0  0  0  0  0
   24.2010   14.0020   24.3860 H   0  0  0  0  0  0  0  0  0  0  0  0
   23.9310   13.5450   22.2960 C   0  0  0  0  0  0  0  0  0  0  0  0
   24.6690   14.2730   21.9600 H   0  0  0  0  0  0  0  0  0  0  0  0
   22.9370   13.9920   22.2610 H   0  0  0  0  0  0  0  0  0  0  0  0
   23.9690   12.3410   21.3880 C   0  0  0  0  0  0  0  0  0  0  0  0
   23.5730   10.9840   21.8930 C   0  0  0  0  0  0  0  0  0  0  0  0
   24.3720   12.5300   20.1390 C   0  0  0  0  0  0  0  0  0  0  0  0
   24.6500   13.5210   19.8120 H   0  0  0  0  0  0  0  0  0  0  0  0
   24.4450   11.3910   19.1820 C   0  0  0  0  0  0  0  0  0  0  0  0
   24.7720   11.5440   18.1640 H   0  0  0  0  0  0  0  0  0  0  0  0
   24.0990   10.1850   19.6100 C   0  0  0  0  0  0  0  0  0  0  0  0
   24.1430    9.3430   18.9350 H   0  0  0  0  0  0  0  0  0  0  0  0
   23.6500    9.9840   21.0180 C   0  0  0  0  0  0  0  0  0  0  0  0
   23.3770    8.9900   21.3400 H   0  0  0  0  0  0  0  0  0  0  0  0
   17.2500   11.1710   22.7750 C   0  0  0  0  0  0  0  0  0  0  0  0
   17.3390   10.1430   23.7270 C   0  0  0  0  0  0  0  0  0  0  0  0
   18.3150    9.8380   24.0760 H   0  0  0  0  0  0  0  0  0  0  0  0
   16.2090    9.5020   24.2380 C   0  0  0  0  0  0  0  0  0  0  0  0
   16.3130    8.7160   24.9710 H   0  0  0  0  0  0  0  0  0  0  0  0
   14.9460    9.8850   23.7940 C   0  0  0  0  0  0  0  0  0  0  0  0
   14.0640    9.3950   24.1790 H   0  0  0  0  0  0  0  0  0  0  0  0
   14.8240   10.9050   22.8490 C   0  0  0  0  0  0  0  0  0  0  0  0
   13.8460   11.2030   22.5010 H   0  0  0  0  0  0  0  0  0  0  0  0
   15.9680   11.5440   22.3510 C   0  0  0  0  0  0  0  0  0  0  0  0
   15.8590   12.3380   21.6270 H   0  0  0  0  0  0  0  0  0  0  0  0
  1  2  1  0  0  0  0
  1 11  1  0  0  0  0
  1 40  1  0  0  0  0
  1 50  1  0  0  0  0
  2  3  1  0  0  0  0
  2  4  1  0  0  0  0
  2  5  1  0  0  0  0
  5  6  1  0  0  0  0
  5  7  1  0  0  0  0
  5  8  1  0  0  0  0
  8  9  1  0  0  0  0
  8 10  1  0  0  0  0
  8 11  1  0  0  0  0
 11 12  1  0  0  0  0
 11 13  1  0  0  0  0
 13 14  2  0  0  0  0
 13 15  1  0  0  0  0
 15 16  1  0  0  0  0
 15 27  1  0  0  0  0
 16 17  1  0  0  0  0
 16 18  1  0  0  0  0
 16 19  1  0  0  0  0
 19 20  1  0  0  0  0
 19 21  1  0  0  0  0
 19 22  1  0  0  0  0
 22 23  1  0  0  0  0
 22 24  1  0  0  0  0
 22 29  1  0  0  0  0
 24 25  1  0  0  0  0
 24 26  1  0  0  0  0
 24 27  1  0  0  0  0
 27 28  1  0  0  0  0
 27 59  1  0  0  0  0
 29 30  1  0  0  0  0
 29 38  2  0  0  0  0
 30 31  1  0  0  0  0
 30 32  2  0  0  0  0
 32 33  1  0  0  0  0
 32 34  1  0  0  0  0
 34 35  1  0  0  0  0
 34 36  2  0  0  0  0
 36 37  1  0  0  0  0
 36 38  1  0  0  0  0
 38 39  1  0  0  0  0
 40 41  1  0  0  0  0
 40 42  1  0  0  0  0
 40 43  1  0  0  0  0
 43 44  1  0  0  0  0
 43 45  1  0  0  0  0
 43 46  1  0  0  0  0
 46 47  1  0  0  0  0
 46 48  1  0  0  0  0
 46 49  1  0  0  0  0
 49 50  1  0  0  0  0
 49 51  2  0  0  0  0
 50 57  2  0  0  0  0
 51 52  1  0  0  0  0
 51 53  1  0  0  0  0
 53 54  1  0  0  0  0
 53 55  2  0  0  0  0
 55 56  1  0  0  0  0
 55 57  1  0  0  0  0
 57 58  1  0  0  0  0
 59 60  1  0  0  0  0
 59 68  2  0  0  0  0
 60 61  1  0  0  0  0
 60 62  2  0  0  0  0
 62 63  1  0  0  0  0
 62 64  1  0  0  0  0
 64 65  1  0  0  0  0
 64 66  2  0  0  0  0
 66 67  1  0  0  0  0
 66 68  1  0  0  0  0
 68 69  1  0  0  0  0
M  CHG  1   5   1
M  END
>  <PARENT_CMPD_ID>
3UFL

>  <STANDARD_TYPE>
IC50

>  <RELATION>
=

>  <STANDARD_VALUE>
0.15000001

>  <STANDARD_UNITS>
uM

>  <COMPOUND_KEY>
9

>  <PUBMED_ID>
22130130

>  <JOURNAL>
Bioorg.Med.Chem.Lett.

>  <YEAR>
2012

>  <VOLUME>
22

>  <FIRST_PAGE>
240

>  <Company>
Merck

>  <Resolution>
1.9

>  <idx>
107

>  <Model>
Train

>  <target>
6.8239088

>  <des_pred_mlr>
6.5070901

>  <RF_Canvas>
6.8701572

>  <DNN_Canvas>
6.6328154

>  <pred_CoMFA>
7.2879

>  <pred_COMSIA>
7.6641002

>  <pred_abm5>
7.0583229

>  <pred_ff8>
6.2336736

>  <pred_gau6>
7.6472845

>  <CID>
BACE_107

>  <active>
0

>  <des_class_bayes>
1

>  <maacs_class_bayes>
0

>  <radial_class_bayes>
0

>  <dend_class_bayes>
0

>  <molprint_class_bayes>
0

>  <RF_canvas>
0

>  <DNN_canvas>
0

$$$$
3QBH_1942
  MOE2015           3D

 79 82  0  0  1  0  0  0  0  0999 V2000
   23.4000   13.1870   24.1220 S   0  0  0  0  0  0  0  0  0  0  0  0
   22.8090   12.1620   25.4770 C   0  0  0  0  0  0  0  0  0  0  0  0
   21.7690   11.1380   24.9300 C   0  0  3  0  0  0  0  0  0  0  0  0
   22.3500   10.2030   23.8180 C   0  0  3  0  0  0  0  0  0  0  0  0
   22.9680   10.9160   22.5730 C   0  0  3  0  0  0  0  0  0  0  0  0
   24.0530   11.9570   23.0060 C   0  0  0  0  0  0  0  0  0  0  0  0
   23.5510    9.8870   21.5350 C   0  0  0  0  0  0  0  0  0  0  0  0
   24.3690   10.5450   20.4110 C   0  0  0  0  0  0  0  0  0  0  0  0
   25.7820   10.4180   20.3980 C   0  0  0  0  0  0  0  0  0  0  0  0
   26.5680   11.0250   19.3880 C   0  0  0  0  0  0  0  0  0  0  0  0
   25.9050   11.7770   18.3770 C   0  0  0  0  0  0  0  0  0  0  0  0
   24.4940   11.8980   18.3760 C   0  0  0  0  0  0  0  0  0  0  0  0
   23.7230   11.2840   19.3880 C   0  0  0  0  0  0  0  0  0  0  0  0
   26.6130   12.4200   17.3630 O   0  0  0  0  0  0  0  0  0  0  0  0
   28.1050   10.8540   19.4160 C   0  0  0  0  0  0  0  0  0  0  0  0
   28.8720   11.7870   20.4000 C   0  0  3  0  0  0  0  0  0  0  0  0
   28.6630   11.6220   21.8360 N   0  0  0  0  0  0  0  0  0  0  0  0
   28.2110   12.7490   22.4510 C   0  0  0  0  0  0  0  0  0  0  0  0
   28.0550   13.7230   21.5450 O   0  0  0  0  0  0  0  0  0  0  0  0
   28.5900   13.3020   20.2780 C   0  0  0  0  0  0  0  0  0  0  0  0
   27.9550   12.9240   23.6310 O   0  0  0  0  0  0  0  0  0  0  0  0
   28.8940   10.3740   22.5830 C   0  0  0  0  0  0  0  0  0  0  0  0
   30.3500    9.8390   22.5660 C   0  0  0  0  0  0  0  0  0  0  0  0
   30.4700    8.5970   23.4930 C   0  0  0  0  0  0  0  0  0  0  0  0
   21.3120    9.2880   23.4280 O   0  0  0  0  0  0  0  0  0  0  0  0
   21.1300   10.3390   26.0160 N   0  3  0  0  0  0  0  0  0  0  0  0
   20.1930   11.0080   26.9820 C   0  0  0  0  0  0  0  0  0  0  0  0
   19.0000   11.6650   26.2570 C   0  0  0  0  0  0  0  0  0  0  0  0
   18.0370   10.8740   25.5850 C   0  0  0  0  0  0  0  0  0  0  0  0
   16.9330   11.4620   24.9110 C   0  0  0  0  0  0  0  0  0  0  0  0
   16.8110   12.8710   24.9170 C   0  0  0  0  0  0  0  0  0  0  0  0
   17.7660   13.6770   25.5830 C   0  0  0  0  0  0  0  0  0  0  0  0
   18.8600   13.0750   26.2540 C   0  0  0  0  0  0  0  0  0  0  0  0
   15.8920   10.5780   24.1890 C   0  0  0  0  0  0  0  0  0  0  0  0
   16.4700   10.0460   22.8500 C   0  0  0  0  0  0  0  0  0  0  0  0
   15.2770    9.4310   25.0360 C   0  0  0  0  0  0  0  0  0  0  0  0
   24.4790   13.9970   24.6370 O   0  0  0  0  0  0  0  0  0  0  0  0
   22.2710   13.8440   23.4870 O   0  0  0  0  0  0  0  0  0  0  0  0
   22.3380   12.7920   26.2320 H   0  0  0  0  0  0  0  0  0  0  0  0
   23.6480   11.6270   25.9220 H   0  0  0  0  0  0  0  0  0  0  0  0
   20.9930   11.7430   24.4620 H   0  0  0  0  0  0  0  0  0  0  0  0
   23.2060    9.6910   24.2570 H   0  0  0  0  0  0  0  0  0  0  0  0
   22.1620   11.4530   22.0730 H   0  0  0  0  0  0  0  0  0  0  0  0
   24.8670   11.4290   23.5030 H   0  0  0  0  0  0  0  0  0  0  0  0
   24.4340   12.4580   22.1160 H   0  0  0  0  0  0  0  0  0  0  0  0
   22.7200    9.3440   21.0840 H   0  0  0  0  0  0  0  0  0  0  0  0
   24.1960    9.1880   22.0670 H   0  0  0  0  0  0  0  0  0  0  0  0
   26.2690    9.8460   21.1750 H   0  0  0  0  0  0  0  0  0  0  0  0
   24.0040   12.4630   17.5970 H   0  0  0  0  0  0  0  0  0  0  0  0
   22.6470   11.3770   19.3820 H   0  0  0  0  0  0  0  0  0  0  0  0
   26.0720   12.9030   16.7340 H   0  0  0  0  0  0  0  0  0  0  0  0
   28.4810   11.0460   18.4110 H   0  0  0  0  0  0  0  0  0  0  0  0
   28.3220    9.8230   19.6950 H   0  0  0  0  0  0  0  0  0  0  0  0
   29.8590   11.4630   20.0710 H   0  0  0  0  0  0  0  0  0  0  0  0
   27.8670   13.4870   19.4840 H   0  0  0  0  0  0  0  0  0  0  0  0
   29.5130   13.8400   20.0620 H   0  0  0  0  0  0  0  0  0  0  0  0
   28.2500    9.6050   22.1570 H   0  0  0  0  0  0  0  0  0  0  0  0
   28.6140   10.5490   23.6220 H   0  0  0  0  0  0  0  0  0  0  0  0
   31.0250   10.6190   22.9180 H   0  0  0  0  0  0  0  0  0  0  0  0
   30.6190    9.5570   21.5480 H   0  0  0  0  0  0  0  0  0  0  0  0
   30.2010    8.8770   24.5120 H   0  0  0  0  0  0  0  0  0  0  0  0
   31.4960    8.2290   23.4760 H   0  0  0  0  0  0  0  0  0  0  0  0
   29.7970    7.8150   23.1410 H   0  0  0  0  0  0  0  0  0  0  0  0
   20.5950    9.8050   23.0530 H   0  0  0  0  0  0  0  0  0  0  0  0
   21.8780    9.9390   26.5640 H   0  0  0  0  0  0  0  0  0  0  0  0
   20.6090    9.6000   25.5670 H   0  0  0  0  0  0  0  0  0  0  0  0
   20.7390   11.7750   27.5300 H   0  0  0  0  0  0  0  0  0  0  0  0
   19.8140   10.2620   27.6810 H   0  0  0  0  0  0  0  0  0  0  0  0
   18.1440    9.7990   25.5850 H   0  0  0  0  0  0  0  0  0  0  0  0
   15.9800   13.3370   24.4080 H   0  0  0  0  0  0  0  0  0  0  0  0
   17.6610   14.7520   25.5800 H   0  0  0  0  0  0  0  0  0  0  0  0
   19.5870   13.6910   26.7630 H   0  0  0  0  0  0  0  0  0  0  0  0
   15.0480   11.2390   23.9940 H   0  0  0  0  0  0  0  0  0  0  0  0
   17.3130    9.3860   23.0550 H   0  0  0  0  0  0  0  0  0  0  0  0
   16.8050   10.8850   22.2400 H   0  0  0  0  0  0  0  0  0  0  0  0
   15.6980    9.4930   22.3150 H   0  0  0  0  0  0  0  0  0  0  0  0
   16.0530    8.7070   25.2860 H   0  0  0  0  0  0  0  0  0  0  0  0
   14.4910    8.9380   24.4640 H   0  0  0  0  0  0  0  0  0  0  0  0
   14.8550    9.8420   25.9530 H   0  0  0  0  0  0  0  0  0  0  0  0
  1  2  1  0  0  0  0
  1  6  1  0  0  0  0
  1 37  2  0  0  0  0
  1 38  2  0  0  0  0
  2  3  1  0  0  0  0
  2 39  1  0  0  0  0
  2 40  1  0  0  0  0
  3  4  1  0  0  0  0
  3 26  1  0  0  0  0
  3 41  1  0  0  0  0
  4  5  1  0  0  0  0
  4 25  1  0  0  0  0
  4 42  1  0  0  0  0
  5  6  1  0  0  0  0
  5  7  1  0  0  0  0
  5 43  1  0  0  0  0
  6 44  1  0  0  0  0
  6 45  1  0  0  0  0
  7  8  1  0  0  0  0
  7 46  1  0  0  0  0
  7 47  1  0  0  0  0
  8  9  1  0  0  0  0
  8 13  2  0  0  0  0
  9 10  2  0  0  0  0
  9 48  1  0  0  0  0
 10 11  1  0  0  0  0
 10 15  1  0  0  0  0
 11 12  2  0  0  0  0
 11 14  1  0  0  0  0
 12 13  1  0  0  0  0
 12 49  1  0  0  0  0
 13 50  1  0  0  0  0
 14 51  1  0  0  0  0
 15 16  1  0  0  0  0
 15 52  1  0  0  0  0
 15 53  1  0  0  0  0
 16 17  1  0  0  0  0
 16 20  1  0  0  0  0
 16 54  1  0  0  0  0
 17 18  1  0  0  0  0
 17 22  1  0  0  0  0
 18 19  1  0  0  0  0
 18 21  2  0  0  0  0
 19 20  1  0  0  0  0
 20 55  1  0  0  0  0
 20 56  1  0  0  0  0
 22 23  1  0  0  0  0
 22 57  1  0  0  0  0
 22 58  1  0  0  0  0
 23 24  1  0  0  0  0
 23 59  1  0  0  0  0
 23 60  1  0  0  0  0
 24 61  1  0  0  0  0
 24 62  1  0  0  0  0
 24 63  1  0  0  0  0
 25 64  1  0  0  0  0
 26 27  1  0  0  0  0
 26 65  1  0  0  0  0
 26 66  1  0  0  0  0
 27 28  1  0  0  0  0
 27 67  1  0  0  0  0
 27 68  1  0  0  0  0
 28 29  1  0  0  0  0
 28 33  2  0  0  0  0
 29 30  2  0  0  0  0
 29 69  1  0  0  0  0
 30 31  1  0  0  0  0
 30 34  1  0  0  0  0
 31 32  2  0  0  0  0
 31 70  1  0  0  0  0
 32 33  1  0  0  0  0
 32 71  1  0  0  0  0
 33 72  1  0  0  0  0
 34 35  1  0  0  0  0
 34 36  1  0  0  0  0
 34 73  1  0  0  0  0
 35 74  1  0  0  0  0
 35 75  1  0  0  0  0
 35 76  1  0  0  0  0
 36 77  1  0  0  0  0
 36 78  1  0  0  0  0
 36 79  1  0  0  0  0
M  CHG  1  26   1
M  END
>  <PARENT_CMPD_ID>
3QBH

>  <STANDARD_TYPE>
IC50

>  <RELATION>
=

>  <STANDARD_VALUE>
0.15000001

>  <STANDARD_UNITS>
uM

>  <COMPOUND_KEY>
23

>  <PUBMED_ID>
21388807

>  <JOURNAL>
Bioorg.Med.Chem.Lett.

>  <YEAR>
2011

>  <VOLUME>
21

>  <FIRST_PAGE>
1942

>  <Company>
Novartis

>  <Resolution>
2.24

>  <idx>
108

>  <Model>
Train

>  <target>
6.8239088

>  <des_pred_mlr>
6.9436998

>  <RF_Canvas>
6.985775

>  <DNN_Canvas>
6.7970171

>  <pred_CoMFA>
7.3333998

>  <pred_COMSIA>
7.7031002

>  <pred_abm5>
6.905261

>  <pred_ff8>
7.64924

>  <pred_gau6>
7.3741059

>  <CID>
BACE_108

>  <active>
0

>  <des_class_bayes>
1

>  <maacs_class_bayes>
0

>  <radial_class_bayes>
0

>  <dend_class_bayes>
0

>  <molprint_class_bayes>
0

>  <RF_canvas>
0

>  <DNN_canvas>
1

$$$$
2F3E_4544
  MOE2015           3D

100100  0  0  1  0  0  0  0  0999 V2000
   24.0310   11.2430   20.2590 S   0  0  0  0  0  0  0  0  0  0  0  0
   23.7030   10.1460   21.7000 C   0  0  0  0  0  0  0  0  0  0  0  0
   23.2660   11.1030   22.8610 C   0  0  3  0  0  0  0  0  0  0  0  0
   24.4640   11.7600   23.3730 N   0  0  0  0  0  0  0  0  0  0  0  0
   24.4600   13.0970   23.5910 C   0  0  0  0  0  0  0  0  0  0  0  0
   25.7490   13.6710   24.1610 C   0  0  3  0  0  0  0  0  0  0  0  0
   26.7870   13.5340   23.1410 N   0  0  0  0  0  0  0  0  0  0  0  0
   28.0950   13.5410   23.4840 C   0  0  0  0  0  0  0  0  0  0  0  0
   29.0530   13.3720   22.3450 C   0  0  3  0  0  0  0  0  0  0  0  0
   28.9820   11.8900   21.9890 C   0  0  0  0  0  0  0  0  0  0  0  0
   29.8440   11.6370   20.4540 S   0  0  0  0  0  0  0  0  0  0  0  0
   29.0330   10.0510   20.0690 C   0  0  0  0  0  0  0  0  0  0  0  0
   27.6840   10.2800   19.4140 C   0  0  0  0  0  0  0  0  0  0  0  0
   26.5190   10.0810   20.0450 C   0  0  0  0  0  0  0  0  0  0  0  0
   25.2240   10.2620   19.3000 C   0  0  0  0  0  0  0  0  0  0  0  0
   30.3930   13.8160   22.7260 N   0  0  0  0  0  0  0  0  0  0  0  0
   30.5840   15.1450   22.9500 C   0  0  0  0  0  0  0  0  0  0  0  0
   29.7020   15.9920   22.8100 O   0  0  0  0  0  0  0  0  0  0  0  0
   31.8660   15.4340   23.3590 O   0  0  0  0  0  0  0  0  0  0  0  0
   32.0980   16.8660   23.6700 C   0  0  0  0  0  0  0  0  0  0  0  0
   33.5650   17.0420   24.1360 C   0  0  0  0  0  0  0  0  0  0  0  0
   31.8790   17.7720   22.4230 C   0  0  0  0  0  0  0  0  0  0  0  0
   31.1780   17.3360   24.8310 C   0  0  0  0  0  0  0  0  0  0  0  0
   28.5200   13.6680   24.6210 O   0  0  0  0  0  0  0  0  0  0  0  0
   25.6220   15.1440   24.6500 C   0  0  0  0  0  0  0  0  0  0  0  0
   23.4960   13.8120   23.3630 O   0  0  0  0  0  0  0  0  0  0  0  0
   22.4620   10.3490   23.9810 C   0  0  3  0  0  0  0  0  0  0  0  0
   23.2360    9.3050   24.5380 O   0  0  0  0  0  0  0  0  0  0  0  0
   22.0900   11.2440   25.1760 C   0  0  0  0  0  0  0  0  0  0  0  0
   20.8380   10.6170   25.7900 C   0  0  3  0  0  0  0  0  0  0  0  0
   20.6640   10.9920   27.2710 C   0  0  0  0  0  0  0  0  0  0  0  0
   19.6200   11.1930   25.0940 C   0  0  0  0  0  0  0  0  0  0  0  0
   19.6600   12.3370   24.6600 O   0  0  0  0  0  0  0  0  0  0  0  0
   18.5520   10.3950   24.9850 N   0  0  0  0  0  0  0  0  0  0  0  0
   17.3460   10.9240   24.3490 C   0  0  3  0  0  0  0  0  0  0  0  0
   16.3290    9.8120   24.0190 C   0  0  0  0  0  0  0  0  0  0  0  0
   15.8040    9.2110   25.3230 C   0  0  0  0  0  0  0  0  0  0  0  0
   15.1310   10.3800   23.2290 C   0  0  0  0  0  0  0  0  0  0  0  0
   16.7420   11.9720   25.2470 C   0  0  0  0  0  0  0  0  0  0  0  0
   16.8650   11.8520   26.4630 O   0  0  0  0  0  0  0  0  0  0  0  0
   16.0990   13.0020   24.6560 N   0  0  0  0  0  0  0  0  0  0  0  0
   15.5180   14.0310   25.5200 C   0  0  0  0  0  0  0  0  0  0  0  0
   15.4460   15.3740   24.7680 C   0  0  0  0  0  0  0  0  0  0  0  0
   16.8080   16.0750   24.8380 C   0  0  0  0  0  0  0  0  0  0  0  0
   16.6970   17.4150   24.0940 C   0  0  0  0  0  0  0  0  0  0  0  0
   24.6050    9.5990   21.9760 H   0  0  0  0  0  0  0  0  0  0  0  0
   22.9060    9.4400   21.4680 H   0  0  0  0  0  0  0  0  0  0  0  0
   22.5750   11.8560   22.4820 H   0  0  0  0  0  0  0  0  0  0  0  0
   25.2950   11.2190   23.5650 H   0  0  0  0  0  0  0  0  0  0  0  0
   26.0080   13.1090   25.0580 H   0  0  0  0  0  0  0  0  0  0  0  0
   26.5250   13.4330   22.1710 H   0  0  0  0  0  0  0  0  0  0  0  0
   28.8000   13.9820   21.4780 H   0  0  0  0  0  0  0  0  0  0  0  0
   27.9410   11.5870   21.8800 H   0  0  0  0  0  0  0  0  0  0  0  0
   29.4510   11.3000   22.7760 H   0  0  0  0  0  0  0  0  0  0  0  0
   28.8910    9.4890   20.9920 H   0  0  0  0  0  0  0  0  0  0  0  0
   29.6670    9.4810   19.3900 H   0  0  0  0  0  0  0  0  0  0  0  0
   27.6620   10.6200   18.3890 H   0  0  0  0  0  0  0  0  0  0  0  0
   26.5090    9.7910   21.0850 H   0  0  0  0  0  0  0  0  0  0  0  0
   25.4260   10.7730   18.3580 H   0  0  0  0  0  0  0  0  0  0  0  0
   24.7930    9.2820   19.0960 H   0  0  0  0  0  0  0  0  0  0  0  0
   31.1530   13.1570   22.8200 H   0  0  0  0  0  0  0  0  0  0  0  0
   34.2390   16.7200   23.3420 H   0  0  0  0  0  0  0  0  0  0  0  0
   33.7380   16.4380   25.0270 H   0  0  0  0  0  0  0  0  0  0  0  0
   33.7500   18.0910   24.3670 H   0  0  0  0  0  0  0  0  0  0  0  0
   32.5270   17.4370   21.6130 H   0  0  0  0  0  0  0  0  0  0  0  0
   32.1190   18.8040   22.6770 H   0  0  0  0  0  0  0  0  0  0  0  0
   30.8380   17.7080   22.1060 H   0  0  0  0  0  0  0  0  0  0  0  0
   31.3360   16.6980   25.7010 H   0  0  0  0  0  0  0  0  0  0  0  0
   30.1360   17.2720   24.5180 H   0  0  0  0  0  0  0  0  0  0  0  0
   31.4170   18.3680   25.0890 H   0  0  0  0  0  0  0  0  0  0  0  0
   25.3620   15.7850   23.8080 H   0  0  0  0  0  0  0  0  0  0  0  0
   26.5720   15.4690   25.0750 H   0  0  0  0  0  0  0  0  0  0  0  0
   24.8430   15.2090   25.4100 H   0  0  0  0  0  0  0  0  0  0  0  0
   21.5630    9.9940   23.4770 H   0  0  0  0  0  0  0  0  0  0  0  0
   24.0020    9.7040   24.9580 H   0  0  0  0  0  0  0  0  0  0  0  0
   21.8800   12.2590   24.8390 H   0  0  0  0  0  0  0  0  0  0  0  0
   22.9010   11.2630   25.9040 H   0  0  0  0  0  0  0  0  0  0  0  0
   20.9400    9.5370   25.6830 H   0  0  0  0  0  0  0  0  0  0  0  0
   20.5640   12.0730   27.3630 H   0  0  0  0  0  0  0  0  0  0  0  0
   21.5350   10.6590   27.8350 H   0  0  0  0  0  0  0  0  0  0  0  0
   19.7700   10.5090   27.6650 H   0  0  0  0  0  0  0  0  0  0  0  0
   18.5780    9.4480   25.3340 H   0  0  0  0  0  0  0  0  0  0  0  0
   17.6210   11.3750   23.3960 H   0  0  0  0  0  0  0  0  0  0  0  0
   16.8300    9.0550   23.4150 H   0  0  0  0  0  0  0  0  0  0  0  0
   15.3090    9.9870   25.9070 H   0  0  0  0  0  0  0  0  0  0  0  0
   16.6360    8.8010   25.8950 H   0  0  0  0  0  0  0  0  0  0  0  0
   15.0930    8.4170   25.0970 H   0  0  0  0  0  0  0  0  0  0  0  0
   14.6270   11.1380   23.8290 H   0  0  0  0  0  0  0  0  0  0  0  0
   14.4330    9.5750   22.9990 H   0  0  0  0  0  0  0  0  0  0  0  0
   15.4870   10.8290   22.3020 H   0  0  0  0  0  0  0  0  0  0  0  0
   16.0210   13.0600   23.6510 H   0  0  0  0  0  0  0  0  0  0  0  0
   16.1380   14.1480   26.4090 H   0  0  0  0  0  0  0  0  0  0  0  0
   14.5130   13.7290   25.8150 H   0  0  0  0  0  0  0  0  0  0  0  0
   14.6880   16.0070   25.2280 H   0  0  0  0  0  0  0  0  0  0  0  0
   15.1840   15.1930   23.7260 H   0  0  0  0  0  0  0  0  0  0  0  0
   17.5680   15.4530   24.3660 H   0  0  0  0  0  0  0  0  0  0  0  0
   17.0790   16.2520   25.8790 H   0  0  0  0  0  0  0  0  0  0  0  0
   16.4260   17.2320   23.0540 H   0  0  0  0  0  0  0  0  0  0  0  0
   17.6550   17.9330   24.1340 H   0  0  0  0  0  0  0  0  0  0  0  0
   15.9310   18.0300   24.5660 H   0  0  0  0  0  0  0  0  0  0  0  0
  1  2  1  0  0  0  0
  1 15  1  0  0  0  0
  2  3  1  0  0  0  0
  2 46  1  0  0  0  0
  2 47  1  0  0  0  0
  3  4  1  0  0  0  0
  3 27  1  0  0  0  0
  3 48  1  0  0  0  0
  4  5  1  0  0  0  0
  4 49  1  0  0  0  0
  5  6  1  0  0  0  0
  5 26  2  0  0  0  0
  6  7  1  0  0  0  0
  6 25  1  0  0  0  0
  6 50  1  0  0  0  0
  7  8  1  0  0  0  0
  7 51  1  0  0  0  0
  8  9  1  0  0  0  0
  8 24  2  0  0  0  0
  9 10  1  0  0  0  0
  9 16  1  0  0  0  0
  9 52  1  0  0  0  0
 10 11  1  0  0  0  0
 10 53  1  0  0  0  0
 10 54  1  0  0  0  0
 11 12  1  0  0  0  0
 12 13  1  0  0  0  0
 12 55  1  0  0  0  0
 12 56  1  0  0  0  0
 13 14  2  0  0  0  0
 13 57  1  0  0  0  0
 14 15  1  0  0  0  0
 14 58  1  0  0  0  0
 15 59  1  0  0  0  0
 15 60  1  0  0  0  0
 16 17  1  0  0  0  0
 16 61  1  0  0  0  0
 17 18  2  0  0  0  0
 17 19  1  0  0  0  0
 19 20  1  0  0  0  0
 20 21  1  0  0  0  0
 20 22  1  0  0  0  0
 20 23  1  0  0  0  0
 21 62  1  0  0  0  0
 21 63  1  0  0  0  0
 21 64  1  0  0  0  0
 22 65  1  0  0  0  0
 22 66  1  0  0  0  0
 22 67  1  0  0  0  0
 23 68  1  0  0  0  0
 23 69  1  0  0  0  0
 23 70  1  0  0  0  0
 25 71  1  0  0  0  0
 25 72  1  0  0  0  0
 25 73  1  0  0  0  0
 27 28  1  0  0  0  0
 27 29  1  0  0  0  0
 27 74  1  0  0  0  0
 28 75  1  0  0  0  0
 29 30  1  0  0  0  0
 29 76  1  0  0  0  0
 29 77  1  0  0  0  0
 30 31  1  0  0  0  0
 30 32  1  0  0  0  0
 30 78  1  0  0  0  0
 31 79  1  0  0  0  0
 31 80  1  0  0  0  0
 31 81  1  0  0  0  0
 32 33  2  0  0  0  0
 32 34  1  0  0  0  0
 34 35  1  0  0  0  0
 34 82  1  0  0  0  0
 35 36  1  0  0  0  0
 35 39  1  0  0  0  0
 35 83  1  0  0  0  0
 36 37  1  0  0  0  0
 36 38  1  0  0  0  0
 36 84  1  0  0  0  0
 37 85  1  0  0  0  0
 37 86  1  0  0  0  0
 37 87  1  0  0  0  0
 38 88  1  0  0  0  0
 38 89  1  0  0  0  0
 38 90  1  0  0  0  0
 39 40  2  0  0  0  0
 39 41  1  0  0  0  0
 41 42  1  0  0  0  0
 41 91  1  0  0  0  0
 42 43  1  0  0  0  0
 42 92  1  0  0  0  0
 42 93  1  0  0  0  0
 43 44  1  0  0  0  0
 43 94  1  0  0  0  0
 43 95  1  0  0  0  0
 44 45  1  0  0  0  0
 44 96  1  0  0  0  0
 44 97  1  0  0  0  0
 45 98  1  0  0  0  0
 45 99  1  0  0  0  0
 45100  1  0  0  0  0
M  END
>  <PARENT_CMPD_ID>
2F3E

>  <STANDARD_TYPE>
IC50

>  <RELATION>
=

>  <STANDARD_VALUE>
0.156

>  <STANDARD_UNITS>
uM

>  <COMPOUND_KEY>
42

>  <PUBMED_ID>
16854060

>  <JOURNAL>
J.Med.Chem.

>  <YEAR>
2006

>  <VOLUME>
49

>  <FIRST_PAGE>
4544

>  <Company>
U.Montreal

>  <Resolution>
2.1099999

>  <idx>
109

>  <Model>
Train

>  <target>
6.8068752

>  <des_pred_mlr>
7.6271701

>  <RF_Canvas>
7.0819311

>  <DNN_Canvas>
6.665627

>  <pred_CoMFA>
6.8712001

>  <pred_COMSIA>
6.9636002

>  <pred_abm5>
6.3756428

>  <pred_ff8>
6.6737242

>  <pred_gau6>
6.5820084

>  <CID>
BACE_109

>  <active>
0

>  <des_class_bayes>
1

>  <maacs_class_bayes>
0

>  <radial_class_bayes>
0

>  <dend_class_bayes>
0

>  <molprint_class_bayes>
0

>  <RF_canvas>
0

>  <DNN_canvas>
0

$$$$
3INE_1146
  MOE2015           3D

 56 60  0  0  1  0  0  0  0  0999 V2000
   17.4010   12.6400   20.2970 C   0  0  0  0  0  0  0  0  0  0  0  0
   22.1880   11.2890   24.1380 N   0  0  0  0  0  0  0  0  0  0  0  0
   16.6100   10.0690   19.5860 O   0  0  0  0  0  0  0  0  0  0  0  0
   18.2910   11.4400   20.4920 C   0  0  0  0  0  0  0  0  0  0  0  0
   22.2640    9.5940   22.6780 N   0  0  0  0  0  0  0  0  0  0  0  0
   21.4810   13.0540   22.8250 O   0  0  0  0  0  0  0  0  0  0  0  0
   19.5650   11.6160   21.0550 C   0  0  0  0  0  0  0  0  0  0  0  0
   22.6520    9.1020   24.9370 N   0  0  0  0  0  0  0  0  0  0  0  0
   20.4420   10.5380   21.2630 C   0  0  0  0  0  0  0  0  0  0  0  0
   20.0040    9.2590   20.8850 C   0  0  0  0  0  0  0  0  0  0  0  0
   18.7350    9.0660   20.3230 C   0  0  0  0  0  0  0  0  0  0  0  0
   17.8730   10.1540   20.1230 C   0  0  0  0  0  0  0  0  0  0  0  0
   16.0790    8.7570   19.4320 C   0  0  0  0  0  0  0  0  0  0  0  0
   21.8290   10.7890   21.8810 C   0  0  3  0  0  0  0  0  0  0  0  0
   21.7930   11.8800   22.9730 C   0  0  0  0  0  0  0  0  0  0  0  0
   22.4560    9.9750   23.9060 C   0  0  0  0  0  0  0  0  0  0  0  0
   22.3000   12.0000   25.4040 C   0  0  0  0  0  0  0  0  0  0  0  0
   22.9500   11.0990   20.7960 C   0  0  0  0  0  0  0  0  0  0  0  0
   24.3050   11.4630   21.4870 C   0  0  0  0  0  0  0  0  0  0  0  0
   25.4050   11.7560   20.4530 C   0  0  0  0  0  0  0  0  0  0  0  0
   24.9670   12.9360   19.5720 C   0  0  0  0  0  0  0  0  0  0  0  0
   23.6740   12.5760   18.8300 C   0  0  0  0  0  0  0  0  0  0  0  0
   22.5670   12.2910   19.8660 C   0  0  0  0  0  0  0  0  0  0  0  0
   23.9060   11.3250   17.9730 C   0  0  0  0  0  0  0  0  0  0  0  0
   24.3330   10.1440   18.8560 C   0  0  0  0  0  0  0  0  0  0  0  0
   25.6310   10.5050   19.5870 C   0  0  0  0  0  0  0  0  0  0  0  0
   23.2180    9.8590   19.8840 C   0  0  0  0  0  0  0  0  0  0  0  0
   17.9150   13.5350   20.6480 H   0  0  0  0  0  0  0  0  0  0  0  0
   16.4800   12.5050   20.8630 H   0  0  0  0  0  0  0  0  0  0  0  0
   17.1640   12.7490   19.2390 H   0  0  0  0  0  0  0  0  0  0  0  0
   19.8800   12.6100   21.3370 H   0  0  0  0  0  0  0  0  0  0  0  0
   22.6520    8.1070   24.7630 H   0  0  0  0  0  0  0  0  0  0  0  0
   22.7970    9.4510   25.8740 H   0  0  0  0  0  0  0  0  0  0  0  0
   20.6560    8.4100   21.0300 H   0  0  0  0  0  0  0  0  0  0  0  0
   18.4190    8.0720   20.0420 H   0  0  0  0  0  0  0  0  0  0  0  0
   15.0800    8.8180   19.0000 H   0  0  0  0  0  0  0  0  0  0  0  0
   16.0250    8.2700   20.4060 H   0  0  0  0  0  0  0  0  0  0  0  0
   16.7260    8.1780   18.7720 H   0  0  0  0  0  0  0  0  0  0  0  0
   22.0140   13.0420   25.2620 H   0  0  0  0  0  0  0  0  0  0  0  0
   23.3300   11.9510   25.7580 H   0  0  0  0  0  0  0  0  0  0  0  0
   21.6400   11.5390   26.1390 H   0  0  0  0  0  0  0  0  0  0  0  0
   24.6200   10.6270   22.1120 H   0  0  0  0  0  0  0  0  0  0  0  0
   24.1590   12.3460   22.1090 H   0  0  0  0  0  0  0  0  0  0  0  0
   26.3360   12.0130   20.9590 H   0  0  0  0  0  0  0  0  0  0  0  0
   25.7510   13.1580   18.8480 H   0  0  0  0  0  0  0  0  0  0  0  0
   24.7930   13.8110   20.1980 H   0  0  0  0  0  0  0  0  0  0  0  0
   23.3750   13.4030   18.1860 H   0  0  0  0  0  0  0  0  0  0  0  0
   22.4140   13.1820   20.4760 H   0  0  0  0  0  0  0  0  0  0  0  0
   21.6440   12.0480   19.3400 H   0  0  0  0  0  0  0  0  0  0  0  0
   24.6890   11.5300   17.2430 H   0  0  0  0  0  0  0  0  0  0  0  0
   22.9830   11.0690   17.4530 H   0  0  0  0  0  0  0  0  0  0  0  0
   24.4990    9.2580   18.2430 H   0  0  0  0  0  0  0  0  0  0  0  0
   25.9320    9.6730   20.2230 H   0  0  0  0  0  0  0  0  0  0  0  0
   26.4150   10.7060   18.8570 H   0  0  0  0  0  0  0  0  0  0  0  0
   22.3010    9.6060   19.3510 H   0  0  0  0  0  0  0  0  0  0  0  0
   23.5190    9.0180   20.5090 H   0  0  0  0  0  0  0  0  0  0  0  0
  1  4  1  0  0  0  0
  1 28  1  0  0  0  0
  1 29  1  0  0  0  0
  1 30  1  0  0  0  0
  2 15  1  0  0  0  0
  2 16  1  0  0  0  0
  2 17  1  0  0  0  0
  3 12  1  0  0  0  0
  3 13  1  0  0  0  0
  4  7  1  0  0  0  0
  4 12  2  0  0  0  0
  5 14  1  0  0  0  0
  5 16  2  0  0  0  0
  6 15  2  0  0  0  0
  7  9  2  0  0  0  0
  7 31  1  0  0  0  0
  8 16  1  0  0  0  0
  8 32  1  0  0  0  0
  8 33  1  0  0  0  0
  9 10  1  0  0  0  0
  9 14  1  0  0  0  0
 10 11  2  0  0  0  0
 10 34  1  0  0  0  0
 11 12  1  0  0  0  0
 11 35  1  0  0  0  0
 13 36  1  0  0  0  0
 13 37  1  0  0  0  0
 13 38  1  0  0  0  0
 14 15  1  0  0  0  0
 14 18  1  0  0  0  0
 17 39  1  0  0  0  0
 17 40  1  0  0  0  0
 17 41  1  0  0  0  0
 18 19  1  0  0  0  0
 18 23  1  0  0  0  0
 18 27  1  0  0  0  0
 19 20  1  0  0  0  0
 19 42  1  0  0  0  0
 19 43  1  0  0  0  0
 20 21  1  0  0  0  0
 20 26  1  0  0  0  0
 20 44  1  0  0  0  0
 21 22  1  0  0  0  0
 21 45  1  0  0  0  0
 21 46  1  0  0  0  0
 22 23  1  0  0  0  0
 22 24  1  0  0  0  0
 22 47  1  0  0  0  0
 23 48  1  0  0  0  0
 23 49  1  0  0  0  0
 24 25  1  0  0  0  0
 24 50  1  0  0  0  0
 24 51  1  0  0  0  0
 25 26  1  0  0  0  0
 25 27  1  0  0  0  0
 25 52  1  0  0  0  0
 26 53  1  0  0  0  0
 26 54  1  0  0  0  0
 27 55  1  0  0  0  0
 27 56  1  0  0  0  0
M  END
>  <PARENT_CMPD_ID>
3INE

>  <STANDARD_TYPE>
IC50

>  <RELATION>
=

>  <STANDARD_VALUE>
0.17

>  <STANDARD_UNITS>
uM

>  <COMPOUND_KEY>
S-34

>  <PUBMED_ID>
19968289

>  <JOURNAL>
J.Med.Chem.

>  <YEAR>
2010

>  <VOLUME>
53

>  <FIRST_PAGE>
1146

>  <Company>
Wyeth

>  <Resolution>
2

>  <idx>
110

>  <Model>
Train

>  <target>
6.7695513

>  <des_pred_mlr>
7.0784202

>  <RF_Canvas>
6.9315376

>  <DNN_Canvas>
7.0181174

>  <pred_CoMFA>
6.5075998

>  <pred_COMSIA>
6.3786998

>  <pred_abm5>
6.7675443

>  <pred_ff8>
5.9533262

>  <pred_gau6>
6.5761013

>  <CID>
BACE_110

>  <active>
0

>  <des_class_bayes>
0

>  <maacs_class_bayes>
0

>  <radial_class_bayes>
0

>  <dend_class_bayes>
0

>  <molprint_class_bayes>
0

>  <RF_canvas>
0

>  <DNN_canvas>
0

$$$$
4I10_2181
  MOE2015           3D

 58 62  0  0  1  0  0  0  0  0999 V2000
   21.9080   15.5150   17.5620 Cl  0  0  0  0  0  0  0  0  0  0  0  0
   23.0580   14.7910   18.7110 C   0  0  0  0  0  0  0  0  0  0  0  0
   22.6780   13.5130   19.2230 C   0  0  0  0  0  0  0  0  0  0  0  0
   23.5470   12.8710   20.0710 C   0  0  0  0  0  0  0  0  0  0  0  0
   24.7190   13.5030   20.4420 C   0  0  0  0  0  0  0  0  0  0  0  0
   25.1080   14.7560   19.9150 C   0  0  0  0  0  0  0  0  0  0  0  0
   24.2540   15.4640   19.0610 C   0  0  0  0  0  0  0  0  0  0  0  0
   23.1960   11.5170   20.6930 C   0  0  0  0  0  0  0  0  0  0  0  0
   24.4970   10.7060   20.8470 C   0  0  0  0  0  0  0  0  0  0  0  0
   25.3980   11.5000   21.6860 N   0  3  0  0  0  0  0  0  0  0  0  0
   25.5720   12.7700   21.4640 C   0  0  0  0  0  0  0  0  0  0  0  0
   26.4140   13.5470   22.1760 N   0  0  0  0  0  0  0  0  0  0  0  0
   27.4090   13.0660   23.1610 C   0  0  3  0  0  0  0  0  0  0  0  0
   28.8330   12.9360   22.5030 C   0  0  0  0  0  0  0  0  0  0  0  0
   24.2590    9.3110   21.4660 C   0  0  0  0  0  0  0  0  0  0  0  0
   25.0940   10.5210   19.4080 C   0  0  0  0  0  0  0  0  0  0  0  0
   27.5240   14.0840   24.1910 C   0  0  0  0  0  0  0  0  0  0  0  0
   26.8970   15.3040   23.9970 N   0  0  0  0  0  0  0  0  0  0  0  0
   28.5990   14.8090   26.1860 C   0  0  0  0  0  0  0  0  0  0  0  0
   28.3200   13.8400   25.2620 N   0  0  0  0  0  0  0  0  0  0  0  0
   28.7170   12.9190   25.3800 H   0  0  0  0  0  0  0  0  0  0  0  0
   29.3430   14.5840   27.1670 O   0  0  0  0  0  0  0  0  0  0  0  0
   28.8350   11.8300   21.4390 C   0  0  0  0  0  0  0  0  0  0  0  0
   28.8570   10.4810   21.8710 C   0  0  0  0  0  0  0  0  0  0  0  0
   28.8340    9.3810   20.9910 C   0  0  0  0  0  0  0  0  0  0  0  0
   28.7940    9.6660   19.6110 C   0  0  0  0  0  0  0  0  0  0  0  0
   28.7900   11.0100   19.2200 C   0  0  0  0  0  0  0  0  0  0  0  0
   28.7950   12.1370   20.0620 C   0  0  0  0  0  0  0  0  0  0  0  0
   27.9570   16.1430   25.9950 C   0  0  0  0  0  0  0  0  0  0  0  0
   27.0930   16.3190   24.8910 C   0  0  0  0  0  0  0  0  0  0  0  0
   26.4180   17.5670   24.7400 C   0  0  0  0  0  0  0  0  0  0  0  0
   25.7540   17.7280   23.9030 H   0  0  0  0  0  0  0  0  0  0  0  0
   26.6240   18.5950   25.6950 C   0  0  0  0  0  0  0  0  0  0  0  0
   26.1350   19.5500   25.5720 H   0  0  0  0  0  0  0  0  0  0  0  0
   27.4400   18.3800   26.7700 N   0  0  0  0  0  0  0  0  0  0  0  0
   28.1090   17.1800   26.9500 C   0  0  0  0  0  0  0  0  0  0  0  0
   28.7430   17.0350   27.8130 H   0  0  0  0  0  0  0  0  0  0  0  0
   21.7340   13.0640   18.9510 H   0  0  0  0  0  0  0  0  0  0  0  0
   26.0710   15.1700   20.1730 H   0  0  0  0  0  0  0  0  0  0  0  0
   24.4900   16.4520   18.6950 H   0  0  0  0  0  0  0  0  0  0  0  0
   22.5020   10.9820   20.0450 H   0  0  0  0  0  0  0  0  0  0  0  0
   22.7370   11.6680   21.6700 H   0  0  0  0  0  0  0  0  0  0  0  0
   26.3610   14.5440   22.0240 H   0  0  0  0  0  0  0  0  0  0  0  0
   27.0890   12.0980   23.5450 H   0  0  0  0  0  0  0  0  0  0  0  0
   29.5640   12.6930   23.2740 H   0  0  0  0  0  0  0  0  0  0  0  0
   29.1000   13.8840   22.0360 H   0  0  0  0  0  0  0  0  0  0  0  0
   23.8440    9.4240   22.4670 H   0  0  0  0  0  0  0  0  0  0  0  0
   25.2050    8.7730   21.5240 H   0  0  0  0  0  0  0  0  0  0  0  0
   23.5600    8.7520   20.8440 H   0  0  0  0  0  0  0  0  0  0  0  0
   25.2670   11.4990   18.9580 H   0  0  0  0  0  0  0  0  0  0  0  0
   24.3920    9.9570   18.7930 H   0  0  0  0  0  0  0  0  0  0  0  0
   26.0370    9.9780   19.4730 H   0  0  0  0  0  0  0  0  0  0  0  0
   28.8930   10.2850   22.9320 H   0  0  0  0  0  0  0  0  0  0  0  0
   28.8460    8.3650   21.3570 H   0  0  0  0  0  0  0  0  0  0  0  0
   28.7670    8.8730   18.8790 H   0  0  0  0  0  0  0  0  0  0  0  0
   28.7820   11.2030   18.1570 H   0  0  0  0  0  0  0  0  0  0  0  0
   28.7700   13.1500   19.6870 H   0  0  0  0  0  0  0  0  0  0  0  0
   25.8910   11.0550   22.4470 H   0  0  0  0  0  0  0  0  0  0  0  0
  1  2  1  0  0  0  0
  2  3  1  0  0  0  0
  2  7  2  0  0  0  0
  3  4  2  0  0  0  0
  3 38  1  0  0  0  0
  4  5  1  0  0  0  0
  4  8  1  0  0  0  0
  5  6  2  0  0  0  0
  5 11  1  0  0  0  0
  6  7  1  0  0  0  0
  6 39  1  0  0  0  0
  7 40  1  0  0  0  0
  8  9  1  0  0  0  0
  8 41  1  0  0  0  0
  8 42  1  0  0  0  0
  9 10  1  0  0  0  0
  9 15  1  0  0  0  0
  9 16  1  0  0  0  0
 10 11  2  0  0  0  0
 10 58  1  0  0  0  0
 11 12  1  0  0  0  0
 12 13  1  0  0  0  0
 12 43  1  0  0  0  0
 13 14  1  0  0  0  0
 13 17  1  0  0  0  0
 13 44  1  0  0  0  0
 14 23  1  0  0  0  0
 14 45  1  0  0  0  0
 14 46  1  0  0  0  0
 15 47  1  0  0  0  0
 15 48  1  0  0  0  0
 15 49  1  0  0  0  0
 16 50  1  0  0  0  0
 16 51  1  0  0  0  0
 16 52  1  0  0  0  0
 17 18  2  0  0  0  0
 17 20  1  0  0  0  0
 18 30  1  0  0  0  0
 19 20  1  0  0  0  0
 19 22  2  0  0  0  0
 19 29  1  0  0  0  0
 20 21  1  0  0  0  0
 23 24  1  0  0  0  0
 23 28  2  0  0  0  0
 24 25  2  0  0  0  0
 24 53  1  0  0  0  0
 25 26  1  0  0  0  0
 25 54  1  0  0  0  0
 26 27  2  0  0  0  0
 26 55  1  0  0  0  0
 27 28  1  0  0  0  0
 27 56  1  0  0  0  0
 28 57  1  0  0  0  0
 29 30  1  0  0  0  0
 29 36  2  0  0  0  0
 30 31  2  0  0  0  0
 31 32  1  0  0  0  0
 31 33  1  0  0  0  0
 33 34  1  0  0  0  0
 33 35  2  0  0  0  0
 35 36  1  0  0  0  0
 36 37  1  0  0  0  0
M  CHG  1  10   1
M  END
>  <PARENT_CMPD_ID>
4I10

>  <STANDARD_TYPE>
IC50

>  <RELATION>
=

>  <STANDARD_VALUE>
0.17

>  <STANDARD_UNITS>
uM

>  <COMPOUND_KEY>
31

>  <PUBMED_ID>
23465612

>  <JOURNAL>
Bioorg.Med.Chem.Lett.

>  <YEAR>
2013

>  <VOLUME>
23

>  <FIRST_PAGE>
2181

>  <Company>
Elan

>  <Resolution>
2.0699999

>  <idx>
111

>  <Model>
Train

>  <target>
6.7695513

>  <des_pred_mlr>
6.41924

>  <RF_Canvas>
7.000999

>  <DNN_Canvas>
6.7548819

>  <pred_CoMFA>
6.6831999

>  <pred_COMSIA>
6.6262002

>  <pred_abm5>
6.708261

>  <pred_ff8>
5.1479793

>  <pred_gau6>
6.4660454

>  <CID>
BACE_111

>  <active>
0

>  <des_class_bayes>
0

>  <maacs_class_bayes>
0

>  <radial_class_bayes>
0

>  <dend_class_bayes>
0

>  <molprint_class_bayes>
0

>  <RF_canvas>
0

>  <DNN_canvas>
0

$$$$
2VJ9_1017
  MOE2015           3D

 77 80  0  0  1  0  0  0  0  0999 V2000
   28.1640   13.3040   22.8260 C   0  0  0  0  0  0  0  0  0  0  0  0
   26.8120   12.8350   22.6680 C   0  0  0  0  0  0  0  0  0  0  0  0
   25.7270   13.3720   23.4540 C   0  0  0  0  0  0  0  0  0  0  0  0
   25.9920   14.3970   24.4150 C   0  0  0  0  0  0  0  0  0  0  0  0
   27.3390   14.8890   24.5950 C   0  0  0  0  0  0  0  0  0  0  0  0
   28.4130   14.3250   23.7850 C   0  0  0  0  0  0  0  0  0  0  0  0
   24.3870   12.8680   23.2390 C   0  0  0  0  0  0  0  0  0  0  0  0
   24.3080   11.5160   23.0950 N   0  0  0  0  0  0  0  0  0  0  0  0
   23.3930   13.5990   23.1500 O   0  0  0  0  0  0  0  0  0  0  0  0
   23.0500   10.7900   22.8020 C   0  0  3  0  0  0  0  0  0  0  0  0
   23.3790    9.7760   21.6490 C   0  0  0  0  0  0  0  0  0  0  0  0
   22.4590   10.1060   24.0620 C   0  0  3  0  0  0  0  0  0  0  0  0
   21.2800    9.4030   23.7220 O   0  0  0  0  0  0  0  0  0  0  0  0
   24.2490   10.3920   20.5520 C   0  0  0  0  0  0  0  0  0  0  0  0
   22.0310   11.1230   25.0950 C   0  0  0  0  0  0  0  0  0  0  0  0
   25.4800    9.7430   20.1560 C   0  0  0  0  0  0  0  0  0  0  0  0
   26.3180   10.3130   19.1290 C   0  0  0  0  0  0  0  0  0  0  0  0
   25.9380   11.5390   18.4850 C   0  0  0  0  0  0  0  0  0  0  0  0
   24.7180   12.1920   18.8690 C   0  0  0  0  0  0  0  0  0  0  0  0
   23.8800   11.6260   19.8920 C   0  0  0  0  0  0  0  0  0  0  0  0
   29.2400   12.8190   22.0900 N   0  0  0  0  0  0  0  0  0  0  0  0
   29.1650   11.9200   20.9300 C   0  0  0  0  0  0  0  0  0  0  0  0
   29.4290   10.4700   21.3550 C   0  0  0  0  0  0  0  0  0  0  0  0
   27.5960   15.8920   25.5220 N   0  0  0  0  0  0  0  0  0  0  0  0
   28.5930   15.8690   26.4520 C   0  0  0  0  0  0  0  0  0  0  0  0
   28.5570   17.1510   27.2770 C   0  0  0  0  0  0  0  0  0  0  0  0
   27.5880   18.0490   26.4970 C   0  0  0  0  0  0  0  0  0  0  0  0
   26.7920   17.1240   25.5960 C   0  0  0  0  0  0  0  0  0  0  0  0
   29.4190   14.9830   26.6350 O   0  0  0  0  0  0  0  0  0  0  0  0
   21.4540   10.5130   26.3030 N   0  3  0  0  0  0  0  0  0  0  0  0
   20.6280   11.4860   27.0650 C   0  0  0  0  0  0  0  0  0  0  0  0
   21.5560   12.4990   27.8220 C   0  0  0  0  0  0  0  0  0  0  0  0
   20.7090   13.5560   28.6570 C   0  0  0  0  0  0  0  0  0  0  0  0
   19.1460   13.3240   28.5100 C   0  0  0  0  0  0  0  0  0  0  0  0
   18.8490   11.8180   28.9030 C   0  0  0  0  0  0  0  0  0  0  0  0
   19.6970   10.7660   28.0840 C   0  0  0  0  0  0  0  0  0  0  0  0
   26.6040   12.0620   21.9430 H   0  0  0  0  0  0  0  0  0  0  0  0
   25.1850   14.8040   25.0070 H   0  0  0  0  0  0  0  0  0  0  0  0
   29.4210   14.6910   23.9160 H   0  0  0  0  0  0  0  0  0  0  0  0
   25.1560   10.9770   23.1940 H   0  0  0  0  0  0  0  0  0  0  0  0
   22.2680   11.4790   22.4830 H   0  0  0  0  0  0  0  0  0  0  0  0
   22.4430    9.4390   21.2040 H   0  0  0  0  0  0  0  0  0  0  0  0
   23.9070    8.9230   22.0750 H   0  0  0  0  0  0  0  0  0  0  0  0
   23.2390    9.4520   24.4540 H   0  0  0  0  0  0  0  0  0  0  0  0
   20.6470   10.0430   23.3880 H   0  0  0  0  0  0  0  0  0  0  0  0
   21.2840   11.7790   24.6470 H   0  0  0  0  0  0  0  0  0  0  0  0
   22.9020   11.7100   25.3850 H   0  0  0  0  0  0  0  0  0  0  0  0
   25.7750    8.8210   20.6350 H   0  0  0  0  0  0  0  0  0  0  0  0
   27.2340    9.8160   18.8440 H   0  0  0  0  0  0  0  0  0  0  0  0
   26.5650   11.9670   17.7170 H   0  0  0  0  0  0  0  0  0  0  0  0
   24.4280   13.1140   18.3870 H   0  0  0  0  0  0  0  0  0  0  0  0
   22.9650   12.1280   20.1710 H   0  0  0  0  0  0  0  0  0  0  0  0
   30.1610   13.1130   22.3810 H   0  0  0  0  0  0  0  0  0  0  0  0
   29.9120   12.2200   20.1950 H   0  0  0  0  0  0  0  0  0  0  0  0
   28.1710   11.9890   20.4870 H   0  0  0  0  0  0  0  0  0  0  0  0
   30.4220   10.3970   21.7990 H   0  0  0  0  0  0  0  0  0  0  0  0
   29.3720    9.8190   20.4820 H   0  0  0  0  0  0  0  0  0  0  0  0
   28.6810   10.1640   22.0860 H   0  0  0  0  0  0  0  0  0  0  0  0
   29.5460   17.6040   27.3370 H   0  0  0  0  0  0  0  0  0  0  0  0
   28.1850   16.9570   28.2830 H   0  0  0  0  0  0  0  0  0  0  0  0
   28.1410   18.7750   25.9010 H   0  0  0  0  0  0  0  0  0  0  0  0
   26.9230   18.5740   27.1830 H   0  0  0  0  0  0  0  0  0  0  0  0
   25.8120   16.9180   26.0260 H   0  0  0  0  0  0  0  0  0  0  0  0
   26.6690   17.5630   24.6060 H   0  0  0  0  0  0  0  0  0  0  0  0
   22.2040   10.1850   26.8950 H   0  0  0  0  0  0  0  0  0  0  0  0
   20.8740    9.7320   26.0310 H   0  0  0  0  0  0  0  0  0  0  0  0
   20.0020   12.0230   26.3530 H   0  0  0  0  0  0  0  0  0  0  0  0
   22.1670   13.0320   27.0930 H   0  0  0  0  0  0  0  0  0  0  0  0
   22.2020   11.9460   28.5030 H   0  0  0  0  0  0  0  0  0  0  0  0
   20.9500   14.5580   28.3020 H   0  0  0  0  0  0  0  0  0  0  0  0
   20.9790   13.4690   29.7090 H   0  0  0  0  0  0  0  0  0  0  0  0
   18.8380   13.5080   27.4810 H   0  0  0  0  0  0  0  0  0  0  0  0
   18.6060   13.9960   29.1770 H   0  0  0  0  0  0  0  0  0  0  0  0
   17.7920   11.6190   28.7270 H   0  0  0  0  0  0  0  0  0  0  0  0
   19.0720   11.6890   29.9620 H   0  0  0  0  0  0  0  0  0  0  0  0
   20.3050   10.1810   28.7740 H   0  0  0  0  0  0  0  0  0  0  0  0
   19.0210   10.1030   27.5450 H   0  0  0  0  0  0  0  0  0  0  0  0
  1  2  1  0  0  0  0
  1  6  2  0  0  0  0
  1 21  1  0  0  0  0
  2  3  2  0  0  0  0
  2 37  1  0  0  0  0
  3  4  1  0  0  0  0
  3  7  1  0  0  0  0
  4  5  2  0  0  0  0
  4 38  1  0  0  0  0
  5  6  1  0  0  0  0
  5 24  1  0  0  0  0
  6 39  1  0  0  0  0
  7  8  1  0  0  0  0
  7  9  2  0  0  0  0
  8 10  1  0  0  0  0
  8 40  1  0  0  0  0
 10 11  1  0  0  0  0
 10 12  1  0  0  0  0
 10 41  1  0  0  0  0
 11 14  1  0  0  0  0
 11 42  1  0  0  0  0
 11 43  1  0  0  0  0
 12 13  1  0  0  0  0
 12 15  1  0  0  0  0
 12 44  1  0  0  0  0
 13 45  1  0  0  0  0
 14 16  1  0  0  0  0
 14 20  2  0  0  0  0
 15 30  1  0  0  0  0
 15 46  1  0  0  0  0
 15 47  1  0  0  0  0
 16 17  2  0  0  0  0
 16 48  1  0  0  0  0
 17 18  1  0  0  0  0
 17 49  1  0  0  0  0
 18 19  2  0  0  0  0
 18 50  1  0  0  0  0
 19 20  1  0  0  0  0
 19 51  1  0  0  0  0
 20 52  1  0  0  0  0
 21 22  1  0  0  0  0
 21 53  1  0  0  0  0
 22 23  1  0  0  0  0
 22 54  1  0  0  0  0
 22 55  1  0  0  0  0
 23 56  1  0  0  0  0
 23 57  1  0  0  0  0
 23 58  1  0  0  0  0
 24 25  1  0  0  0  0
 24 28  1  0  0  0  0
 25 26  1  0  0  0  0
 25 29  2  0  0  0  0
 26 27  1  0  0  0  0
 26 59  1  0  0  0  0
 26 60  1  0  0  0  0
 27 28  1  0  0  0  0
 27 61  1  0  0  0  0
 27 62  1  0  0  0  0
 28 63  1  0  0  0  0
 28 64  1  0  0  0  0
 30 31  1  0  0  0  0
 30 65  1  0  0  0  0
 30 66  1  0  0  0  0
 31 32  1  0  0  0  0
 31 36  1  0  0  0  0
 31 67  1  0  0  0  0
 32 33  1  0  0  0  0
 32 68  1  0  0  0  0
 32 69  1  0  0  0  0
 33 34  1  0  0  0  0
 33 70  1  0  0  0  0
 33 71  1  0  0  0  0
 34 35  1  0  0  0  0
 34 72  1  0  0  0  0
 34 73  1  0  0  0  0
 35 36  1  0  0  0  0
 35 74  1  0  0  0  0
 35 75  1  0  0  0  0
 36 76  1  0  0  0  0
 36 77  1  0  0  0  0
M  CHG  1  30   1
M  END
>  <PARENT_CMPD_ID>
2VJ9

>  <STANDARD_TYPE>
IC50

>  <RELATION>
=

>  <STANDARD_VALUE>
0.18000001

>  <STANDARD_UNITS>
uM

>  <COMPOUND_KEY>
6

>  <PUBMED_ID>
18166458

>  <JOURNAL>
Bioorg.Med.Chem.Lett.

>  <YEAR>
2008

>  <VOLUME>
18

>  <FIRST_PAGE>
1017

>  <Company>
GSK

>  <Resolution>
1.6

>  <idx>
112

>  <Model>
Train

>  <target>
6.7447276

>  <des_pred_mlr>
6.3329101

>  <RF_Canvas>
6.7990685

>  <DNN_Canvas>
6.6794748

>  <pred_CoMFA>
6.3660998

>  <pred_COMSIA>
6.3150001

>  <pred_abm5>
6.302381

>  <pred_ff8>
6.6925511

>  <pred_gau6>
6.3298883

>  <CID>
BACE_112

>  <active>
0

>  <des_class_bayes>
0

>  <maacs_class_bayes>
0

>  <radial_class_bayes>
0

>  <dend_class_bayes>
1

>  <molprint_class_bayes>
1

>  <RF_canvas>
0

>  <DNN_canvas>
0

$$$$
4J0T_3980
  MOE2015           3D

 48 50  0  0  1  0  0  0  0  0999 V2000
   22.7750   12.2730   23.3060 C   0  0  0  0  0  0  0  0  0  0  0  0
   21.6820   11.7590   22.3640 C   0  0  0  0  0  0  0  0  0  0  0  0
   22.8440   11.2440   24.3190 O   0  0  0  0  0  0  0  0  0  0  0  0
   22.7140    9.9340   23.9730 C   0  0  0  0  0  0  0  0  0  0  0  0
   22.2380    9.4980   22.8210 N   0  0  0  0  0  0  0  0  0  0  0  0
   21.9580   10.3840   21.7140 C   0  0  3  0  0  0  0  0  0  0  0  0
   23.1430   10.5540   20.7740 C   0  0  0  0  0  0  0  0  0  0  0  0
   24.4550   10.2920   21.2010 C   0  0  0  0  0  0  0  0  0  0  0  0
   25.5500   10.4670   20.3310 C   0  0  0  0  0  0  0  0  0  0  0  0
   25.3690   10.9060   19.0130 C   0  0  0  0  0  0  0  0  0  0  0  0
   24.0630   11.2370   18.5830 C   0  0  0  0  0  0  0  0  0  0  0  0
   22.9730   11.0580   19.4480 C   0  0  0  0  0  0  0  0  0  0  0  0
   21.7010   11.3090   18.9900 F   0  0  0  0  0  0  0  0  0  0  0  0
   22.9750    9.0220   24.9490 N   0  0  0  0  0  0  0  0  0  0  0  0
   20.6830    9.8530   21.0390 C   0  0  0  0  0  0  0  0  0  0  0  0
   26.8140   10.1960   20.8690 N   0  0  0  0  0  0  0  0  0  0  0  0
   28.0000   10.4860   20.2580 C   0  0  0  0  0  0  0  0  0  0  0  0
   29.1680   10.1290   21.0530 C   0  0  0  0  0  0  0  0  0  0  0  0
   28.0070   11.0880   19.1950 O   0  0  0  0  0  0  0  0  0  0  0  0
   28.8850    9.2900   22.0350 N   0  0  0  0  0  0  0  0  0  0  0  0
   29.7560    8.8520   22.8930 C   0  0  0  0  0  0  0  0  0  0  0  0
   31.0630    9.2860   22.8450 C   0  0  0  0  0  0  0  0  0  0  0  0
   31.4240   10.1890   21.8180 C   0  0  0  0  0  0  0  0  0  0  0  0
   30.4540   10.6450   20.9220 C   0  0  0  0  0  0  0  0  0  0  0  0
   31.9410    8.7920   23.8160 O   0  0  0  0  0  0  0  0  0  0  0  0
   20.4980   11.7140   23.0760 F   0  0  0  0  0  0  0  0  0  0  0  0
   21.4590   12.6750   21.3960 F   0  0  0  0  0  0  0  0  0  0  0  0
   33.3080    9.2160   23.5730 C   0  0  0  0  0  0  0  0  0  0  0  0
   34.2350    8.6230   24.6200 C   0  0  0  0  0  0  0  0  0  0  0  0
   22.4970   13.2330   23.7410 H   0  0  0  0  0  0  0  0  0  0  0  0
   23.7270   12.3730   22.7840 H   0  0  0  0  0  0  0  0  0  0  0  0
   24.6270    9.9510   22.2110 H   0  0  0  0  0  0  0  0  0  0  0  0
   26.2090   10.9900   18.3390 H   0  0  0  0  0  0  0  0  0  0  0  0
   23.9050   11.6280   17.5890 H   0  0  0  0  0  0  0  0  0  0  0  0
   22.8040    8.0410   24.7820 H   0  0  0  0  0  0  0  0  0  0  0  0
   23.3400    9.3270   25.8400 H   0  0  0  0  0  0  0  0  0  0  0  0
   19.8900    9.7620   21.7810 H   0  0  0  0  0  0  0  0  0  0  0  0
   20.8840    8.8750   20.6010 H   0  0  0  0  0  0  0  0  0  0  0  0
   20.3710   10.5450   20.2560 H   0  0  0  0  0  0  0  0  0  0  0  0
   26.8510    9.7530   21.7760 H   0  0  0  0  0  0  0  0  0  0  0  0
   29.4540    8.1430   23.6490 H   0  0  0  0  0  0  0  0  0  0  0  0
   32.4460   10.5250   21.7270 H   0  0  0  0  0  0  0  0  0  0  0  0
   30.6930   11.3700   20.1580 H   0  0  0  0  0  0  0  0  0  0  0  0
   33.3610   10.3040   23.6200 H   0  0  0  0  0  0  0  0  0  0  0  0
   33.6190    8.8790   22.5840 H   0  0  0  0  0  0  0  0  0  0  0  0
   33.9260    8.9580   25.6100 H   0  0  0  0  0  0  0  0  0  0  0  0
   35.2570    8.9500   24.4280 H   0  0  0  0  0  0  0  0  0  0  0  0
   34.1870    7.5350   24.5730 H   0  0  0  0  0  0  0  0  0  0  0  0
  1  2  1  0  0  0  0
  1  3  1  0  0  0  0
  1 30  1  0  0  0  0
  1 31  1  0  0  0  0
  2  6  1  0  0  0  0
  2 26  1  0  0  0  0
  2 27  1  0  0  0  0
  3  4  1  0  0  0  0
  4  5  2  0  0  0  0
  4 14  1  0  0  0  0
  5  6  1  0  0  0  0
  6  7  1  0  0  0  0
  6 15  1  0  0  0  0
  7  8  1  0  0  0  0
  7 12  2  0  0  0  0
  8  9  2  0  0  0  0
  8 32  1  0  0  0  0
  9 10  1  0  0  0  0
  9 16  1  0  0  0  0
 10 11  2  0  0  0  0
 10 33  1  0  0  0  0
 11 12  1  0  0  0  0
 11 34  1  0  0  0  0
 12 13  1  0  0  0  0
 14 35  1  0  0  0  0
 14 36  1  0  0  0  0
 15 37  1  0  0  0  0
 15 38  1  0  0  0  0
 15 39  1  0  0  0  0
 16 17  1  0  0  0  0
 16 40  1  0  0  0  0
 17 18  1  0  0  0  0
 17 19  2  0  0  0  0
 18 20  1  0  0  0  0
 18 24  2  0  0  0  0
 20 21  2  0  0  0  0
 21 22  1  0  0  0  0
 21 41  1  0  0  0  0
 22 23  2  0  0  0  0
 22 25  1  0  0  0  0
 23 24  1  0  0  0  0
 23 42  1  0  0  0  0
 24 43  1  0  0  0  0
 25 28  1  0  0  0  0
 28 29  1  0  0  0  0
 28 44  1  0  0  0  0
 28 45  1  0  0  0  0
 29 46  1  0  0  0  0
 29 47  1  0  0  0  0
 29 48  1  0  0  0  0
M  END
>  <PARENT_CMPD_ID>
4J0T

>  <STANDARD_TYPE>
IC50

>  <RELATION>
=

>  <STANDARD_VALUE>
0.184

>  <STANDARD_UNITS>
uM

>  <COMPOUND_KEY>
14i

>  <PUBMED_ID>
23590342

>  <JOURNAL>
J.Med.Chem.

>  <YEAR>
2013

>  <VOLUME>
56

>  <FIRST_PAGE>
3980

>  <Company>
Roche

>  <Resolution>
2.05

>  <idx>
113

>  <Model>
Train

>  <target>
6.7351823

>  <des_pred_mlr>
6.9271998

>  <RF_Canvas>
6.8918257

>  <DNN_Canvas>
6.921123

>  <pred_CoMFA>
6.6753001

>  <pred_COMSIA>
6.9208999

>  <pred_abm5>
6.5579543

>  <pred_ff8>
6.6509829

>  <pred_gau6>
6.9632978

>  <CID>
BACE_113

>  <active>
0

>  <des_class_bayes>
1

>  <maacs_class_bayes>
1

>  <radial_class_bayes>
0

>  <dend_class_bayes>
0

>  <molprint_class_bayes>
0

>  <RF_canvas>
0

>  <DNN_canvas>
0

$$$$
4DV9_10749
  MOE2015           3D

156158  0  0  1  0  0  0  0  0999 V2000
   30.5590   14.8140   22.2600 C   0  0  0  0  0  0  0  0  0  0  0  0
   29.7520   15.6100   21.8010 O   0  0  0  0  0  0  0  0  0  0  0  0
   32.5990   15.8900   21.4550 C   0  0  0  0  0  0  0  0  0  0  0  0
   32.6820   14.2160   23.1240 O   0  0  0  0  0  0  0  0  0  0  0  0
   31.9300   15.2750   22.6640 C   0  0  3  0  0  0  0  0  0  0  0  0
   30.1640   13.4290   22.3890 N   0  0  0  0  0  0  0  0  0  0  0  0
   28.8260   13.0880   21.9570 C   0  0  3  0  0  0  0  0  0  0  0  0
   27.8440   13.3020   23.1040 C   0  0  0  0  0  0  0  0  0  0  0  0
   28.1940   13.1230   24.2660 O   0  0  0  0  0  0  0  0  0  0  0  0
   28.7110   11.6730   21.3720 C   0  0  0  0  0  0  0  0  0  0  0  0
   29.1930   11.6960   19.9270 C   0  0  0  0  0  0  0  0  0  0  0  0
   29.5320   10.6890   22.1510 C   0  0  0  0  0  0  0  0  0  0  0  0
   26.0820   13.9440   21.3970 C   0  0  0  0  0  0  0  0  0  0  0  0
   25.7540   18.3000   25.2350 N   0  0  0  0  0  0  0  0  0  0  0  0
   25.4960   17.0640   27.1450 O   0  0  0  0  0  0  0  0  0  0  0  0
   23.1530   13.8550   23.2500 O   0  0  0  0  0  0  0  0  0  0  0  0
   26.3150   15.7990   25.3040 C   0  0  0  0  0  0  0  0  0  0  0  0
   25.3790   15.4400   24.1660 C   0  0  0  0  0  0  0  0  0  0  0  0
   25.8300   17.0790   25.9720 C   0  0  0  0  0  0  0  0  0  0  0  0
   24.1610   13.2210   23.5110 C   0  0  0  0  0  0  0  0  0  0  0  0
   25.4930   13.9370   23.8650 C   0  0  3  0  0  0  0  0  0  0  0  0
   26.4710   13.7220   22.7780 N   0  0  0  0  0  0  0  0  0  0  0  0
   24.1500   11.7420   23.4780 N   0  0  0  0  0  0  0  0  0  0  0  0
   22.9190   11.0180   23.1420 C   0  0  3  0  0  0  0  0  0  0  0  0
   23.2710   10.0050   22.0840 C   0  0  0  0  0  0  0  0  0  0  0  0
   23.9400   10.6250   20.8350 C   0  0  0  0  0  0  0  0  0  0  0  0
   25.1580    9.9850   20.2420 C   0  0  0  0  0  0  0  0  0  0  0  0
   23.3870   11.8560   20.2010 C   0  0  0  0  0  0  0  0  0  0  0  0
   25.8180   10.5570   19.0210 C   0  0  0  0  0  0  0  0  0  0  0  0
   24.0300   12.4510   18.9800 C   0  0  0  0  0  0  0  0  0  0  0  0
   25.2520   11.8040   18.3920 C   0  0  0  0  0  0  0  0  0  0  0  0
   22.3510   10.3160   24.3870 C   0  0  3  0  0  0  0  0  0  0  0  0
   23.0330    9.1750   24.7930 O   0  0  0  0  0  0  0  0  0  0  0  0
   21.6690   11.1420   25.4690 C   0  0  0  0  0  0  0  0  0  0  0  0
   20.3030   11.5860   24.9280 C   0  0  0  0  0  0  0  0  0  0  0  0
   20.1880   12.6340   24.3270 O   0  0  0  0  0  0  0  0  0  0  0  0
   19.1450   10.7000   25.1300 N   0  0  0  0  0  0  0  0  0  0  0  0
   17.8120   11.0870   24.6070 C   0  0  3  0  0  0  0  0  0  0  0  0
   17.3130   12.3130   25.3830 C   0  0  0  0  0  0  0  0  0  0  0  0
   17.4380   12.3970   26.5970 O   0  0  0  0  0  0  0  0  0  0  0  0
   16.8530    9.8980   24.6500 C   0  0  0  0  0  0  0  0  0  0  0  0
   15.4070   10.3020   24.2940 C   0  0  0  0  0  0  0  0  0  0  0  0
   15.2490   10.3100   22.7910 C   0  0  0  0  0  0  0  0  0  0  0  0
   14.4820    9.2420   24.8760 C   0  0  0  0  0  0  0  0  0  0  0  0
   16.6800   13.3760   24.6170 N   0  0  0  0  0  0  0  0  0  0  0  0
   16.1770   14.5640   25.3180 C   0  0  3  0  0  0  0  0  0  0  0  0
   14.6630   14.4780   25.4890 C   0  0  0  0  0  0  0  0  0  0  0  0
   14.0480   13.7950   24.6880 O   0  0  0  0  0  0  0  0  0  0  0  0
   16.5450   15.7710   24.4990 C   0  0  0  0  0  0  0  0  0  0  0  0
   13.9450   15.2250   26.5680 N   0  0  0  0  0  0  0  0  0  0  0  0
   12.4770   15.1360   26.6770 C   0  0  3  0  0  0  0  0  0  0  0  0
   11.6960   16.1790   25.8710 C   0  0  0  0  0  0  0  0  0  0  0  0
   10.5970   16.5470   26.3090 O   0  0  0  0  0  0  0  0  0  0  0  0
   11.9070   13.7810   26.2660 C   0  0  0  0  0  0  0  0  0  0  0  0
   11.9760   12.7790   27.4310 C   0  0  0  0  0  0  0  0  0  0  0  0
   12.0840   13.2700   28.8300 C   0  0  0  0  0  0  0  0  0  0  0  0
   11.9310   11.3050   27.1430 C   0  0  0  0  0  0  0  0  0  0  0  0
   12.1460   12.2930   29.9690 C   0  0  0  0  0  0  0  0  0  0  0  0
   11.9900   10.3200   28.2690 C   0  0  0  0  0  0  0  0  0  0  0  0
   12.0940   10.8290   29.6790 C   0  0  0  0  0  0  0  0  0  0  0  0
   14.6780   16.0490   27.5210 C   0  0  0  0  0  0  0  0  0  0  0  0
   11.2000   17.5450   20.3570 C   0  0  0  0  0  0  0  0  0  0  0  0
    9.9970   16.1060   22.9190 O   0  0  0  0  0  0  0  0  0  0  0  0
   13.6740   17.6910   22.9100 C   0  0  0  0  0  0  0  0  0  0  0  0
   12.5410   18.6270   23.1500 C   0  0  0  0  0  0  0  0  0  0  0  0
   13.4170   16.5050   23.8440 C   0  0  0  0  0  0  0  0  0  0  0  0
   10.3980   17.7920   21.4820 O   0  0  0  0  0  0  0  0  0  0  0  0
   10.6220   17.1330   22.6760 C   0  0  0  0  0  0  0  0  0  0  0  0
   11.4730   17.7490   23.7660 C   0  0  3  0  0  0  0  0  0  0  0  0
   12.1670   16.7680   24.5760 N   0  0  0  0  0  0  0  0  0  0  0  0
   32.0010   16.7270   21.0950 H   0  0  0  0  0  0  0  0  0  0  0  0
   32.6870   15.1410   20.6680 H   0  0  0  0  0  0  0  0  0  0  0  0
   33.5920   16.2450   21.7310 H   0  0  0  0  0  0  0  0  0  0  0  0
   32.2310   13.8500   23.8880 H   0  0  0  0  0  0  0  0  0  0  0  0
   31.8480   16.0070   23.4680 H   0  0  0  0  0  0  0  0  0  0  0  0
   30.7930   12.7320   22.7630 H   0  0  0  0  0  0  0  0  0  0  0  0
   28.5730   13.7580   21.1350 H   0  0  0  0  0  0  0  0  0  0  0  0
   27.6680   11.3610   21.4250 H   0  0  0  0  0  0  0  0  0  0  0  0
   30.2360   12.0100   19.8970 H   0  0  0  0  0  0  0  0  0  0  0  0
   28.5860   12.3960   19.3530 H   0  0  0  0  0  0  0  0  0  0  0  0
   29.1010   10.6980   19.4970 H   0  0  0  0  0  0  0  0  0  0  0  0
   30.5820   10.9800   22.1120 H   0  0  0  0  0  0  0  0  0  0  0  0
   29.4150    9.6950   21.7190 H   0  0  0  0  0  0  0  0  0  0  0  0
   29.1970   10.6760   23.1880 H   0  0  0  0  0  0  0  0  0  0  0  0
   26.9290   13.7360   20.7430 H   0  0  0  0  0  0  0  0  0  0  0  0
   25.7700   14.9810   21.2690 H   0  0  0  0  0  0  0  0  0  0  0  0
   25.2550   13.2820   21.1420 H   0  0  0  0  0  0  0  0  0  0  0  0
   25.4260   19.1420   25.6860 H   0  0  0  0  0  0  0  0  0  0  0  0
   26.0290   18.3210   24.2630 H   0  0  0  0  0  0  0  0  0  0  0  0
   27.3210   15.9510   24.9130 H   0  0  0  0  0  0  0  0  0  0  0  0
   26.3270   14.9900   26.0340 H   0  0  0  0  0  0  0  0  0  0  0  0
   25.6510   16.0100   23.2780 H   0  0  0  0  0  0  0  0  0  0  0  0
   24.3540   15.6770   24.4500 H   0  0  0  0  0  0  0  0  0  0  0  0
   25.8220   13.4840   24.8000 H   0  0  0  0  0  0  0  0  0  0  0  0
   24.9940   11.2280   23.6880 H   0  0  0  0  0  0  0  0  0  0  0  0
   22.1570   11.7070   22.7780 H   0  0  0  0  0  0  0  0  0  0  0  0
   22.3570    9.5010   21.7710 H   0  0  0  0  0  0  0  0  0  0  0  0
   23.9570    9.2770   22.5180 H   0  0  0  0  0  0  0  0  0  0  0  0
   23.3070   10.0120   20.1930 H   0  0  0  0  0  0  0  0  0  0  0  0
   24.8790    8.9610   19.9920 H   0  0  0  0  0  0  0  0  0  0  0  0
   25.9150    9.9740   21.0260 H   0  0  0  0  0  0  0  0  0  0  0  0
   23.3980   12.6310   20.9670 H   0  0  0  0  0  0  0  0  0  0  0  0
   22.3560   11.6290   19.9290 H   0  0  0  0  0  0  0  0  0  0  0  0
   25.8010    9.7800   18.2570 H   0  0  0  0  0  0  0  0  0  0  0  0
   26.8500   10.7780   19.2920 H   0  0  0  0  0  0  0  0  0  0  0  0
   24.3060   13.4740   19.2350 H   0  0  0  0  0  0  0  0  0  0  0  0
   23.2710   12.4630   18.1970 H   0  0  0  0  0  0  0  0  0  0  0  0
   25.0100   11.5540   17.3590 H   0  0  0  0  0  0  0  0  0  0  0  0
   26.0440   12.5530   18.4090 H   0  0  0  0  0  0  0  0  0  0  0  0
   21.4320    9.9190   23.9560 H   0  0  0  0  0  0  0  0  0  0  0  0
   23.8620    9.4570   25.1860 H   0  0  0  0  0  0  0  0  0  0  0  0
   22.2760   12.0160   25.7060 H   0  0  0  0  0  0  0  0  0  0  0  0
   21.5340   10.5390   26.3670 H   0  0  0  0  0  0  0  0  0  0  0  0
   19.2580    9.8270   25.6250 H   0  0  0  0  0  0  0  0  0  0  0  0
   17.8760   11.3710   23.5570 H   0  0  0  0  0  0  0  0  0  0  0  0
   16.8620    9.4760   25.6550 H   0  0  0  0  0  0  0  0  0  0  0  0
   17.1930    9.1470   23.9370 H   0  0  0  0  0  0  0  0  0  0  0  0
   15.1740   11.2900   24.6900 H   0  0  0  0  0  0  0  0  0  0  0  0
   15.4830    9.3210   22.3960 H   0  0  0  0  0  0  0  0  0  0  0  0
   15.9290   11.0440   22.3580 H   0  0  0  0  0  0  0  0  0  0  0  0
   14.2220   10.5700   22.5350 H   0  0  0  0  0  0  0  0  0  0  0  0
   14.7400    8.2670   24.4620 H   0  0  0  0  0  0  0  0  0  0  0  0
   13.4490    9.4820   24.6230 H   0  0  0  0  0  0  0  0  0  0  0  0
   14.5940    9.2170   25.9600 H   0  0  0  0  0  0  0  0  0  0  0  0
   16.5880   13.2970   23.6140 H   0  0  0  0  0  0  0  0  0  0  0  0
   16.6190   14.6330   26.3120 H   0  0  0  0  0  0  0  0  0  0  0  0
   16.0970   15.6890   23.5090 H   0  0  0  0  0  0  0  0  0  0  0  0
   17.6290   15.8280   24.4030 H   0  0  0  0  0  0  0  0  0  0  0  0
   16.1760   16.6710   24.9920 H   0  0  0  0  0  0  0  0  0  0  0  0
   12.3390   15.3160   27.7430 H   0  0  0  0  0  0  0  0  0  0  0  0
   12.4830   13.3920   25.4260 H   0  0  0  0  0  0  0  0  0  0  0  0
   10.8670   13.9080   25.9660 H   0  0  0  0  0  0  0  0  0  0  0  0
   10.8890   12.7960   27.5090 H   0  0  0  0  0  0  0  0  0  0  0  0
   11.2160   13.9050   29.0080 H   0  0  0  0  0  0  0  0  0  0  0  0
   12.9910   13.8720   28.8830 H   0  0  0  0  0  0  0  0  0  0  0  0
   12.7750   11.0860   26.4890 H   0  0  0  0  0  0  0  0  0  0  0  0
   11.0000   11.1170   26.6090 H   0  0  0  0  0  0  0  0  0  0  0  0
   11.3060   12.5170   30.6260 H   0  0  0  0  0  0  0  0  0  0  0  0
   13.0810   12.4800   30.4980 H   0  0  0  0  0  0  0  0  0  0  0  0
   12.8590    9.6860   28.0930 H   0  0  0  0  0  0  0  0  0  0  0  0
   11.0840    9.7170   28.2130 H   0  0  0  0  0  0  0  0  0  0  0  0
   11.2280   10.4380   30.2140 H   0  0  0  0  0  0  0  0  0  0  0  0
   13.0040   10.3980   30.0970 H   0  0  0  0  0  0  0  0  0  0  0  0
   15.7440   16.0020   27.2980 H   0  0  0  0  0  0  0  0  0  0  0  0
   14.5020   15.6800   28.5310 H   0  0  0  0  0  0  0  0  0  0  0  0
   14.3360   17.0810   27.4470 H   0  0  0  0  0  0  0  0  0  0  0  0
   10.8590   18.1620   19.5260 H   0  0  0  0  0  0  0  0  0  0  0  0
   11.1270   16.4930   20.0820 H   0  0  0  0  0  0  0  0  0  0  0  0
   12.2370   17.7880   20.5890 H   0  0  0  0  0  0  0  0  0  0  0  0
   14.6230   18.1690   23.1510 H   0  0  0  0  0  0  0  0  0  0  0  0
   13.6860   17.3640   21.8700 H   0  0  0  0  0  0  0  0  0  0  0  0
   12.1930   19.0640   22.2140 H   0  0  0  0  0  0  0  0  0  0  0  0
   12.8330   19.4230   23.8360 H   0  0  0  0  0  0  0  0  0  0  0  0
   14.2430   16.4020   24.5470 H   0  0  0  0  0  0  0  0  0  0  0  0
   13.3190   15.5890   23.2610 H   0  0  0  0  0  0  0  0  0  0  0  0
   10.7820   18.3080   24.3970 H   0  0  0  0  0  0  0  0  0  0  0  0
  1  2  2  0  0  0  0
  1  5  1  0  0  0  0
  1  6  1  0  0  0  0
  3  5  1  0  0  0  0
  3 71  1  0  0  0  0
  3 72  1  0  0  0  0
  3 73  1  0  0  0  0
  4  5  1  0  0  0  0
  4 74  1  0  0  0  0
  5 75  1  0  0  0  0
  6  7  1  0  0  0  0
  6 76  1  0  0  0  0
  7  8  1  0  0  0  0
  7 10  1  0  0  0  0
  7 77  1  0  0  0  0
  8  9  2  0  0  0  0
  8 22  1  0  0  0  0
 10 11  1  0  0  0  0
 10 12  1  0  0  0  0
 10 78  1  0  0  0  0
 11 79  1  0  0  0  0
 11 80  1  0  0  0  0
 11 81  1  0  0  0  0
 12 82  1  0  0  0  0
 12 83  1  0  0  0  0
 12 84  1  0  0  0  0
 13 22  1  0  0  0  0
 13 85  1  0  0  0  0
 13 86  1  0  0  0  0
 13 87  1  0  0  0  0
 14 19  1  0  0  0  0
 14 88  1  0  0  0  0
 14 89  1  0  0  0  0
 15 19  2  0  0  0  0
 16 20  2  0  0  0  0
 17 18  1  0  0  0  0
 17 19  1  0  0  0  0
 17 90  1  0  0  0  0
 17 91  1  0  0  0  0
 18 21  1  0  0  0  0
 18 92  1  0  0  0  0
 18 93  1  0  0  0  0
 20 21  1  0  0  0  0
 20 23  1  0  0  0  0
 21 22  1  0  0  0  0
 21 94  1  0  0  0  0
 23 24  1  0  0  0  0
 23 95  1  0  0  0  0
 24 25  1  0  0  0  0
 24 32  1  0  0  0  0
 24 96  1  0  0  0  0
 25 26  1  0  0  0  0
 25 97  1  0  0  0  0
 25 98  1  0  0  0  0
 26 27  1  0  0  0  0
 26 28  1  0  0  0  0
 26 99  1  0  0  0  0
 27 29  1  0  0  0  0
 27100  1  0  0  0  0
 27101  1  0  0  0  0
 28 30  1  0  0  0  0
 28102  1  0  0  0  0
 28103  1  0  0  0  0
 29 31  1  0  0  0  0
 29104  1  0  0  0  0
 29105  1  0  0  0  0
 30 31  1  0  0  0  0
 30106  1  0  0  0  0
 30107  1  0  0  0  0
 31108  1  0  0  0  0
 31109  1  0  0  0  0
 32 33  1  0  0  0  0
 32 34  1  0  0  0  0
 32110  1  0  0  0  0
 33111  1  0  0  0  0
 34 35  1  0  0  0  0
 34112  1  0  0  0  0
 34113  1  0  0  0  0
 35 36  2  0  0  0  0
 35 37  1  0  0  0  0
 37 38  1  0  0  0  0
 37114  1  0  0  0  0
 38 39  1  0  0  0  0
 38 41  1  0  0  0  0
 38115  1  0  0  0  0
 39 40  2  0  0  0  0
 39 45  1  0  0  0  0
 41 42  1  0  0  0  0
 41116  1  0  0  0  0
 41117  1  0  0  0  0
 42 43  1  0  0  0  0
 42 44  1  0  0  0  0
 42118  1  0  0  0  0
 43119  1  0  0  0  0
 43120  1  0  0  0  0
 43121  1  0  0  0  0
 44122  1  0  0  0  0
 44123  1  0  0  0  0
 44124  1  0  0  0  0
 45 46  1  0  0  0  0
 45125  1  0  0  0  0
 46 47  1  0  0  0  0
 46 49  1  0  0  0  0
 46126  1  0  0  0  0
 47 48  2  0  0  0  0
 47 50  1  0  0  0  0
 49127  1  0  0  0  0
 49128  1  0  0  0  0
 49129  1  0  0  0  0
 50 51  1  0  0  0  0
 50 61  1  0  0  0  0
 51 52  1  0  0  0  0
 51 54  1  0  0  0  0
 51130  1  0  0  0  0
 52 53  2  0  0  0  0
 52 70  1  0  0  0  0
 54 55  1  0  0  0  0
 54131  1  0  0  0  0
 54132  1  0  0  0  0
 55 56  1  0  0  0  0
 55 57  1  0  0  0  0
 55133  1  0  0  0  0
 56 58  1  0  0  0  0
 56134  1  0  0  0  0
 56135  1  0  0  0  0
 57 59  1  0  0  0  0
 57136  1  0  0  0  0
 57137  1  0  0  0  0
 58 60  1  0  0  0  0
 58138  1  0  0  0  0
 58139  1  0  0  0  0
 59 60  1  0  0  0  0
 59140  1  0  0  0  0
 59141  1  0  0  0  0
 60142  1  0  0  0  0
 60143  1  0  0  0  0
 61144  1  0  0  0  0
 61145  1  0  0  0  0
 61146  1  0  0  0  0
 62 67  1  0  0  0  0
 62147  1  0  0  0  0
 62148  1  0  0  0  0
 62149  1  0  0  0  0
 63 68  2  0  0  0  0
 64 65  1  0  0  0  0
 64 66  1  0  0  0  0
 64150  1  0  0  0  0
 64151  1  0  0  0  0
 65 69  1  0  0  0  0
 65152  1  0  0  0  0
 65153  1  0  0  0  0
 66 70  1  0  0  0  0
 66154  1  0  0  0  0
 66155  1  0  0  0  0
 67 68  1  0  0  0  0
 68 69  1  0  0  0  0
 69 70  1  0  0  0  0
 69156  1  0  0  0  0
M  END
>  <PARENT_CMPD_ID>
4DV9

>  <STANDARD_TYPE>
IC50

>  <RELATION>
=

>  <STANDARD_VALUE>
0.189

>  <STANDARD_UNITS>
uM

>  <COMPOUND_KEY>
2

>  <PUBMED_ID>
23181502

>  <JOURNAL>
J.Med.Chem.

>  <YEAR>
2012

>  <VOLUME>
55

>  <FIRST_PAGE>
10749

>  <Company>
SHCNC

>  <Resolution>
2.0799999

>  <idx>
114

>  <Model>
Train

>  <target>
6.7235384

>  <des_pred_mlr>
8.9712

>  <RF_Canvas>
6.9035978

>  <DNN_Canvas>
6.3741913

>  <pred_CoMFA>
6.6423998

>  <pred_COMSIA>
6.4492002

>  <pred_abm5>
6.2691545

>  <pred_ff8>
6.1256976

>  <pred_gau6>
7.0908337

>  <CID>
BACE_114

>  <active>
0

>  <des_class_bayes>
1

>  <maacs_class_bayes>
0

>  <radial_class_bayes>
0

>  <dend_class_bayes>
0

>  <molprint_class_bayes>
1

>  <RF_canvas>
0

>  <DNN_canvas>
0

$$$$
2F3F_4544
  MOE2015           3D

 77 78  0  0  1  0  0  0  0  0999 V2000
   27.8000   12.1490   20.5090 C   0  0  3  0  0  0  0  0  0  0  0  0
   28.5420   12.1180   21.8770 C   0  0  3  0  0  0  0  0  0  0  0  0
   27.7700   13.8450   19.7590 S   0  0  0  0  0  0  0  0  0  0  0  0
   29.9720   12.4360   21.7400 N   0  3  0  0  0  0  0  0  0  0  0  0
   30.6160   11.3810   20.9180 C   0  0  0  0  0  0  0  0  0  0  0  0
   30.0030   11.3780   19.4900 C   0  0  0  0  0  0  0  0  0  0  0  0
   28.4660   11.1170   19.5660 C   0  0  0  0  0  0  0  0  0  0  0  0
   27.8530   12.8560   22.9730 C   0  0  0  0  0  0  0  0  0  0  0  0
   26.5100   12.8710   22.8490 N   0  0  0  0  0  0  0  0  0  0  0  0
   25.6730   13.4490   23.8800 C   0  0  3  0  0  0  0  0  0  0  0  0
   24.3140   12.9030   23.5740 C   0  0  0  0  0  0  0  0  0  0  0  0
   24.2310   11.5460   23.4940 N   0  0  0  0  0  0  0  0  0  0  0  0
   22.9710   10.9230   23.1470 C   0  0  3  0  0  0  0  0  0  0  0  0
   23.1780    9.7580   22.1290 C   0  0  0  0  0  0  0  0  0  0  0  0
   24.3870   10.2420   20.8430 S   0  0  0  0  0  0  0  0  0  0  0  0
   23.4400   11.4710   19.8470 C   0  0  0  0  0  0  0  0  0  0  0  0
   24.5310   12.0230   18.9570 C   0  0  0  0  0  0  0  0  0  0  0  0
   25.1730   13.1450   19.2930 C   0  0  0  0  0  0  0  0  0  0  0  0
   26.3490   13.6480   18.5040 C   0  0  0  0  0  0  0  0  0  0  0  0
   22.1770   10.3720   24.3540 C   0  0  3  0  0  0  0  0  0  0  0  0
   22.8450    9.2500   24.9440 O   0  0  0  0  0  0  0  0  0  0  0  0
   21.9210   11.4190   25.4470 C   0  0  0  0  0  0  0  0  0  0  0  0
   20.6760   10.9260   26.2090 C   0  0  3  0  0  0  0  0  0  0  0  0
   20.5900   11.5660   27.6030 C   0  0  0  0  0  0  0  0  0  0  0  0
   19.4330   11.3340   25.4570 C   0  0  0  0  0  0  0  0  0  0  0  0
   19.3770   12.4480   24.9560 O   0  0  0  0  0  0  0  0  0  0  0  0
   18.4500   10.4280   25.3770 N   0  0  0  0  0  0  0  0  0  0  0  0
   17.2220   10.7560   24.6710 C   0  0  0  0  0  0  0  0  0  0  0  0
   16.1830    9.6630   24.9640 C   0  0  0  0  0  0  0  0  0  0  0  0
   14.7310   10.1190   24.6040 C   0  0  0  0  0  0  0  0  0  0  0  0
   14.5280   10.2010   23.0980 C   0  0  0  0  0  0  0  0  0  0  0  0
   23.3720   13.6450   23.4080 O   0  0  0  0  0  0  0  0  0  0  0  0
   25.7920   14.9870   23.9190 C   0  0  0  0  0  0  0  0  0  0  0  0
   28.4820   13.3790   23.8890 O   0  0  0  0  0  0  0  0  0  0  0  0
   26.7550   11.8810   20.6670 H   0  0  0  0  0  0  0  0  0  0  0  0
   28.4950   11.0820   22.2120 H   0  0  0  0  0  0  0  0  0  0  0  0
   30.4030   12.4660   22.6530 H   0  0  0  0  0  0  0  0  0  0  0  0
   30.0790   13.3330   21.2870 H   0  0  0  0  0  0  0  0  0  0  0  0
   30.4530   10.4090   21.3840 H   0  0  0  0  0  0  0  0  0  0  0  0
   31.6860   11.5770   20.8520 H   0  0  0  0  0  0  0  0  0  0  0  0
   30.4730   10.5930   18.8980 H   0  0  0  0  0  0  0  0  0  0  0  0
   30.1820   12.3450   19.0190 H   0  0  0  0  0  0  0  0  0  0  0  0
   28.0350   11.2080   18.5690 H   0  0  0  0  0  0  0  0  0  0  0  0
   28.2890   10.1120   19.9480 H   0  0  0  0  0  0  0  0  0  0  0  0
   26.0820   12.4730   22.0250 H   0  0  0  0  0  0  0  0  0  0  0  0
   25.9620   13.1830   24.8970 H   0  0  0  0  0  0  0  0  0  0  0  0
   25.0450   10.9770   23.6760 H   0  0  0  0  0  0  0  0  0  0  0  0
   22.3840   11.7290   22.7060 H   0  0  0  0  0  0  0  0  0  0  0  0
   22.2250    9.5210   21.6550 H   0  0  0  0  0  0  0  0  0  0  0  0
   23.5490    8.8800   22.6580 H   0  0  0  0  0  0  0  0  0  0  0  0
   23.0060   12.2480   20.4770 H   0  0  0  0  0  0  0  0  0  0  0  0
   22.6520   10.9930   19.2650 H   0  0  0  0  0  0  0  0  0  0  0  0
   24.7920   11.5070   18.0450 H   0  0  0  0  0  0  0  0  0  0  0  0
   24.8380   13.7050   20.1540 H   0  0  0  0  0  0  0  0  0  0  0  0
   26.6220   12.9300   17.7310 H   0  0  0  0  0  0  0  0  0  0  0  0
   26.1140   14.6070   18.0430 H   0  0  0  0  0  0  0  0  0  0  0  0
   21.2120   10.0690   23.9470 H   0  0  0  0  0  0  0  0  0  0  0  0
   23.6860    9.5610   25.2880 H   0  0  0  0  0  0  0  0  0  0  0  0
   21.7330   12.3960   25.0020 H   0  0  0  0  0  0  0  0  0  0  0  0
   22.7770   11.4850   26.1190 H   0  0  0  0  0  0  0  0  0  0  0  0
   20.7530    9.8430   26.3010 H   0  0  0  0  0  0  0  0  0  0  0  0
   20.5130   12.6490   27.5020 H   0  0  0  0  0  0  0  0  0  0  0  0
   21.4850   11.3170   28.1730 H   0  0  0  0  0  0  0  0  0  0  0  0
   19.7110   11.1870   28.1230 H   0  0  0  0  0  0  0  0  0  0  0  0
   18.5610    9.5200   25.8060 H   0  0  0  0  0  0  0  0  0  0  0  0
   17.4150   10.8010   23.5990 H   0  0  0  0  0  0  0  0  0  0  0  0
   16.8470   11.7200   25.0140 H   0  0  0  0  0  0  0  0  0  0  0  0
   16.2210    9.4170   26.0250 H   0  0  0  0  0  0  0  0  0  0  0  0
   16.4290    8.7780   24.3770 H   0  0  0  0  0  0  0  0  0  0  0  0
   14.5500   11.1020   25.0400 H   0  0  0  0  0  0  0  0  0  0  0  0
   14.0220    9.4020   25.0180 H   0  0  0  0  0  0  0  0  0  0  0  0
   15.2330   10.9160   22.6750 H   0  0  0  0  0  0  0  0  0  0  0  0
   13.5100   10.5260   22.8860 H   0  0  0  0  0  0  0  0  0  0  0  0
   14.6960    9.2190   22.6550 H   0  0  0  0  0  0  0  0  0  0  0  0
   25.5260   15.3970   22.9450 H   0  0  0  0  0  0  0  0  0  0  0  0
   26.8170   15.2660   24.1630 H   0  0  0  0  0  0  0  0  0  0  0  0
   25.1170   15.3850   24.6770 H   0  0  0  0  0  0  0  0  0  0  0  0
  1  2  1  0  0  0  0
  1  3  1  0  0  0  0
  1  7  1  0  0  0  0
  1 35  1  0  0  0  0
  2  4  1  0  0  0  0
  2  8  1  0  0  0  0
  2 36  1  0  0  0  0
  3 19  1  0  0  0  0
  4  5  1  0  0  0  0
  4 37  1  0  0  0  0
  4 38  1  0  0  0  0
  5  6  1  0  0  0  0
  5 39  1  0  0  0  0
  5 40  1  0  0  0  0
  6  7  1  0  0  0  0
  6 41  1  0  0  0  0
  6 42  1  0  0  0  0
  7 43  1  0  0  0  0
  7 44  1  0  0  0  0
  8  9  1  0  0  0  0
  8 34  2  0  0  0  0
  9 10  1  0  0  0  0
  9 45  1  0  0  0  0
 10 11  1  0  0  0  0
 10 33  1  0  0  0  0
 10 46  1  0  0  0  0
 11 12  1  0  0  0  0
 11 32  2  0  0  0  0
 12 13  1  0  0  0  0
 12 47  1  0  0  0  0
 13 14  1  0  0  0  0
 13 20  1  0  0  0  0
 13 48  1  0  0  0  0
 14 15  1  0  0  0  0
 14 49  1  0  0  0  0
 14 50  1  0  0  0  0
 15 16  1  0  0  0  0
 16 17  1  0  0  0  0
 16 51  1  0  0  0  0
 16 52  1  0  0  0  0
 17 18  2  0  0  0  0
 17 53  1  0  0  0  0
 18 19  1  0  0  0  0
 18 54  1  0  0  0  0
 19 55  1  0  0  0  0
 19 56  1  0  0  0  0
 20 21  1  0  0  0  0
 20 22  1  0  0  0  0
 20 57  1  0  0  0  0
 21 58  1  0  0  0  0
 22 23  1  0  0  0  0
 22 59  1  0  0  0  0
 22 60  1  0  0  0  0
 23 24  1  0  0  0  0
 23 25  1  0  0  0  0
 23 61  1  0  0  0  0
 24 62  1  0  0  0  0
 24 63  1  0  0  0  0
 24 64  1  0  0  0  0
 25 26  2  0  0  0  0
 25 27  1  0  0  0  0
 27 28  1  0  0  0  0
 27 65  1  0  0  0  0
 28 29  1  0  0  0  0
 28 66  1  0  0  0  0
 28 67  1  0  0  0  0
 29 30  1  0  0  0  0
 29 68  1  0  0  0  0
 29 69  1  0  0  0  0
 30 31  1  0  0  0  0
 30 70  1  0  0  0  0
 30 71  1  0  0  0  0
 31 72  1  0  0  0  0
 31 73  1  0  0  0  0
 31 74  1  0  0  0  0
 33 75  1  0  0  0  0
 33 76  1  0  0  0  0
 33 77  1  0  0  0  0
M  CHG  1   4   1
M  END
>  <PARENT_CMPD_ID>
2F3F

>  <STANDARD_TYPE>
IC50

>  <RELATION>
=

>  <STANDARD_VALUE>
0.19

>  <STANDARD_UNITS>
uM

>  <COMPOUND_KEY>
52

>  <PUBMED_ID>
16854060

>  <JOURNAL>
J.Med.Chem.

>  <YEAR>
2006

>  <VOLUME>
49

>  <FIRST_PAGE>
4544

>  <Company>
U.Montreal

>  <Resolution>
2.3

>  <idx>
115

>  <Model>
Train

>  <target>
6.7212462

>  <des_pred_mlr>
5.8281102

>  <RF_Canvas>
6.6138372

>  <DNN_Canvas>
6.8521414

>  <pred_CoMFA>
6.4865999

>  <pred_COMSIA>
5.8337002

>  <pred_abm5>
6.2047668

>  <pred_ff8>
6.4105482

>  <pred_gau6>
5.904428

>  <CID>
BACE_115

>  <active>
0

>  <des_class_bayes>
1

>  <maacs_class_bayes>
0

>  <radial_class_bayes>
0

>  <dend_class_bayes>
0

>  <molprint_class_bayes>
0

>  <RF_canvas>
0

>  <DNN_canvas>
0

$$$$
1W51_407
  MOE2015           3D

 81 83  0  0  1  0  0  0  0  0999 V2000
   28.8350   10.1800   21.5440 C   0  0  0  0  0  0  0  0  0  0  0  0
   30.2080   10.7110   21.1090 C   0  0  0  0  0  0  0  0  0  0  0  0
   30.4250   12.2170   21.3230 C   0  0  0  0  0  0  0  0  0  0  0  0
   29.1840   12.9850   21.5270 N   0  0  0  0  0  0  0  0  0  0  0  0
   28.3070   13.3240   20.3950 C   0  0  0  0  0  0  0  0  0  0  0  0
   28.9120   14.5140   19.6300 C   0  0  0  0  0  0  0  0  0  0  0  0
   28.0910   15.7770   19.8940 C   0  0  0  0  0  0  0  0  0  0  0  0
   28.9380   13.3990   22.7710 C   0  0  0  0  0  0  0  0  0  0  0  0
   29.8750   13.3970   23.5520 O   0  0  0  0  0  0  0  0  0  0  0  0
   27.6110   13.8640   23.2260 C   0  0  0  0  0  0  0  0  0  0  0  0
   27.5730   15.0460   23.9510 C   0  0  0  0  0  0  0  0  0  0  0  0
   26.3770   15.5450   24.4150 C   0  0  0  0  0  0  0  0  0  0  0  0
   25.2090   14.8620   24.1900 C   0  0  0  0  0  0  0  0  0  0  0  0
   25.2340   13.6720   23.4640 C   0  0  0  0  0  0  0  0  0  0  0  0
   26.4340   13.1540   22.9940 C   0  0  0  0  0  0  0  0  0  0  0  0
   23.9640   12.9930   23.2520 C   0  0  0  0  0  0  0  0  0  0  0  0
   22.9530   13.6640   23.1070 O   0  0  0  0  0  0  0  0  0  0  0  0
   23.9620   11.6440   23.2570 N   0  0  0  0  0  0  0  0  0  0  0  0
   22.8520   10.8400   22.7990 C   0  0  3  0  0  0  0  0  0  0  0  0
   23.3920    9.7930   21.8470 C   0  0  0  0  0  0  0  0  0  0  0  0
   24.0890   10.3950   20.6440 C   0  0  0  0  0  0  0  0  0  0  0  0
   23.4300   11.2540   19.7900 C   0  0  0  0  0  0  0  0  0  0  0  0
   24.0870   11.7470   18.6710 C   0  0  0  0  0  0  0  0  0  0  0  0
   25.3900   11.4160   18.3870 C   0  0  0  0  0  0  0  0  0  0  0  0
   26.0530   10.5660   19.2310 C   0  0  0  0  0  0  0  0  0  0  0  0
   25.3920   10.0460   20.3410 C   0  0  0  0  0  0  0  0  0  0  0  0
   22.2510   10.1620   24.0120 C   0  0  3  0  0  0  0  0  0  0  0  0
   21.1820    9.3810   23.5140 O   0  0  0  0  0  0  0  0  0  0  0  0
   21.7870   11.2130   25.0420 C   0  0  0  0  0  0  0  0  0  0  0  0
   21.0400   10.6400   26.1880 N   0  3  0  0  0  0  0  0  0  0  0  0
   19.9910   11.5540   26.7160 C   0  0  0  0  0  0  0  0  0  0  0  0
   18.7150   11.6580   25.8720 C   0  0  0  0  0  0  0  0  0  0  0  0
   18.1480   12.9050   25.6110 C   0  0  0  0  0  0  0  0  0  0  0  0
   16.9930   13.0320   24.8330 C   0  0  0  0  0  0  0  0  0  0  0  0
   16.3600   11.9070   24.3020 C   0  0  0  0  0  0  0  0  0  0  0  0
   16.9020   10.6420   24.5620 C   0  0  0  0  0  0  0  0  0  0  0  0
   16.3820    9.4550   24.1220 O   0  0  0  0  0  0  0  0  0  0  0  0
   15.2610    9.5820   23.2380 C   0  0  0  0  0  0  0  0  0  0  0  0
   18.0670   10.5470   25.3380 C   0  0  0  0  0  0  0  0  0  0  0  0
   28.7820    9.1080   21.3520 H   0  0  0  0  0  0  0  0  0  0  0  0
   28.0530   10.6890   20.9800 H   0  0  0  0  0  0  0  0  0  0  0  0
   28.6940   10.3650   22.6090 H   0  0  0  0  0  0  0  0  0  0  0  0
   30.3300   10.5000   20.0460 H   0  0  0  0  0  0  0  0  0  0  0  0
   30.9710   10.1770   21.6750 H   0  0  0  0  0  0  0  0  0  0  0  0
   30.9340   12.6170   20.4460 H   0  0  0  0  0  0  0  0  0  0  0  0
   31.0570   12.3500   22.2010 H   0  0  0  0  0  0  0  0  0  0  0  0
   27.3180   13.5930   20.7670 H   0  0  0  0  0  0  0  0  0  0  0  0
   28.2230   12.4660   19.7280 H   0  0  0  0  0  0  0  0  0  0  0  0
   28.9070   14.2970   18.5620 H   0  0  0  0  0  0  0  0  0  0  0  0
   29.9370   14.6740   19.9630 H   0  0  0  0  0  0  0  0  0  0  0  0
   27.0650   15.6200   19.5610 H   0  0  0  0  0  0  0  0  0  0  0  0
   28.5260   16.6140   19.3470 H   0  0  0  0  0  0  0  0  0  0  0  0
   28.0970   15.9980   20.9610 H   0  0  0  0  0  0  0  0  0  0  0  0
   28.4900   15.5800   24.1530 H   0  0  0  0  0  0  0  0  0  0  0  0
   26.3580   16.4780   24.9580 H   0  0  0  0  0  0  0  0  0  0  0  0
   24.2740   15.2440   24.5730 H   0  0  0  0  0  0  0  0  0  0  0  0
   26.4550   12.2170   22.4580 H   0  0  0  0  0  0  0  0  0  0  0  0
   24.7840   11.1680   23.6010 H   0  0  0  0  0  0  0  0  0  0  0  0
   22.0990   11.4430   22.2920 H   0  0  0  0  0  0  0  0  0  0  0  0
   22.5620    9.1790   21.4970 H   0  0  0  0  0  0  0  0  0  0  0  0
   24.1040    9.1680   22.3850 H   0  0  0  0  0  0  0  0  0  0  0  0
   22.4090   11.5420   19.9910 H   0  0  0  0  0  0  0  0  0  0  0  0
   23.5580   12.4110   18.0030 H   0  0  0  0  0  0  0  0  0  0  0  0
   25.8820   11.8190   17.5140 H   0  0  0  0  0  0  0  0  0  0  0  0
   27.0820   10.3010   19.0370 H   0  0  0  0  0  0  0  0  0  0  0  0
   25.9120    9.3510   20.9830 H   0  0  0  0  0  0  0  0  0  0  0  0
   22.9690    9.5340   24.5400 H   0  0  0  0  0  0  0  0  0  0  0  0
   20.5780    9.9720   23.0590 H   0  0  0  0  0  0  0  0  0  0  0  0
   21.1410   11.9290   24.5350 H   0  0  0  0  0  0  0  0  0  0  0  0
   22.6670   11.7270   25.4280 H   0  0  0  0  0  0  0  0  0  0  0  0
   21.6950   10.4390   26.9300 H   0  0  0  0  0  0  0  0  0  0  0  0
   20.5980    9.7830   25.8880 H   0  0  0  0  0  0  0  0  0  0  0  0
   20.4240   12.5510   26.7940 H   0  0  0  0  0  0  0  0  0  0  0  0
   19.7090   11.2020   27.7080 H   0  0  0  0  0  0  0  0  0  0  0  0
   18.6110   13.7920   26.0180 H   0  0  0  0  0  0  0  0  0  0  0  0
   16.5850   14.0130   24.6400 H   0  0  0  0  0  0  0  0  0  0  0  0
   15.4680   12.0100   23.7010 H   0  0  0  0  0  0  0  0  0  0  0  0
   14.9170    8.5910   22.9420 H   0  0  0  0  0  0  0  0  0  0  0  0
   15.5590   10.1430   22.3520 H   0  0  0  0  0  0  0  0  0  0  0  0
   14.4540   10.1090   23.7470 H   0  0  0  0  0  0  0  0  0  0  0  0
   18.4800    9.5680   25.5300 H   0  0  0  0  0  0  0  0  0  0  0  0
  1  2  1  0  0  0  0
  1 40  1  0  0  0  0
  1 41  1  0  0  0  0
  1 42  1  0  0  0  0
  2  3  1  0  0  0  0
  2 43  1  0  0  0  0
  2 44  1  0  0  0  0
  3  4  1  0  0  0  0
  3 45  1  0  0  0  0
  3 46  1  0  0  0  0
  4  5  1  0  0  0  0
  4  8  1  0  0  0  0
  5  6  1  0  0  0  0
  5 47  1  0  0  0  0
  5 48  1  0  0  0  0
  6  7  1  0  0  0  0
  6 49  1  0  0  0  0
  6 50  1  0  0  0  0
  7 51  1  0  0  0  0
  7 52  1  0  0  0  0
  7 53  1  0  0  0  0
  8  9  2  0  0  0  0
  8 10  1  0  0  0  0
 10 11  1  0  0  0  0
 10 15  2  0  0  0  0
 11 12  2  0  0  0  0
 11 54  1  0  0  0  0
 12 13  1  0  0  0  0
 12 55  1  0  0  0  0
 13 14  2  0  0  0  0
 13 56  1  0  0  0  0
 14 15  1  0  0  0  0
 14 16  1  0  0  0  0
 15 57  1  0  0  0  0
 16 17  2  0  0  0  0
 16 18  1  0  0  0  0
 18 19  1  0  0  0  0
 18 58  1  0  0  0  0
 19 20  1  0  0  0  0
 19 27  1  0  0  0  0
 19 59  1  0  0  0  0
 20 21  1  0  0  0  0
 20 60  1  0  0  0  0
 20 61  1  0  0  0  0
 21 22  1  0  0  0  0
 21 26  2  0  0  0  0
 22 23  2  0  0  0  0
 22 62  1  0  0  0  0
 23 24  1  0  0  0  0
 23 63  1  0  0  0  0
 24 25  2  0  0  0  0
 24 64  1  0  0  0  0
 25 26  1  0  0  0  0
 25 65  1  0  0  0  0
 26 66  1  0  0  0  0
 27 28  1  0  0  0  0
 27 29  1  0  0  0  0
 27 67  1  0  0  0  0
 28 68  1  0  0  0  0
 29 30  1  0  0  0  0
 29 69  1  0  0  0  0
 29 70  1  0  0  0  0
 30 31  1  0  0  0  0
 30 71  1  0  0  0  0
 30 72  1  0  0  0  0
 31 32  1  0  0  0  0
 31 73  1  0  0  0  0
 31 74  1  0  0  0  0
 32 33  1  0  0  0  0
 32 39  2  0  0  0  0
 33 34  2  0  0  0  0
 33 75  1  0  0  0  0
 34 35  1  0  0  0  0
 34 76  1  0  0  0  0
 35 36  2  0  0  0  0
 35 77  1  0  0  0  0
 36 37  1  0  0  0  0
 36 39  1  0  0  0  0
 37 38  1  0  0  0  0
 38 78  1  0  0  0  0
 38 79  1  0  0  0  0
 38 80  1  0  0  0  0
 39 81  1  0  0  0  0
M  CHG  1  30   1
M  END
>  <PARENT_CMPD_ID>
1W51

>  <STANDARD_TYPE>
IC50

>  <RELATION>
=

>  <STANDARD_VALUE>
0.19

>  <STANDARD_UNITS>
uM

>  <COMPOUND_KEY>
1a

>  <PUBMED_ID>
15451669

>  <JOURNAL>
J.Mol.Biol.

>  <YEAR>
2004

>  <VOLUME>
343

>  <FIRST_PAGE>
407

>  <Company>
Astex

>  <Resolution>
2.55

>  <idx>
116

>  <Model>
Train

>  <target>
6.7212462

>  <des_pred_mlr>
6.72293

>  <RF_Canvas>
6.5052228

>  <DNN_Canvas>
6.7576265

>  <pred_CoMFA>
6.7835002

>  <pred_COMSIA>
7.3126001

>  <pred_abm5>
6.8606963

>  <pred_ff8>
6.9300027

>  <pred_gau6>
6.6224661

>  <CID>
BACE_116

>  <active>
0

>  <des_class_bayes>
1

>  <maacs_class_bayes>
0

>  <radial_class_bayes>
0

>  <dend_class_bayes>
1

>  <molprint_class_bayes>
1

>  <RF_canvas>
0

>  <DNN_canvas>
0

$$$$
3KYR_145
  MOE2015           3D

 97 99  0  0  1  0  0  0  0  0999 V2000
   21.0230   13.1340   28.2230 O   0  0  0  0  0  0  0  0  0  0  0  0
   19.5280   12.3130   24.7770 O   0  0  0  0  0  0  0  0  0  0  0  0
   19.5720   11.4210   28.0710 N   0  0  0  0  0  0  0  0  0  0  0  0
   19.4140   11.1650   25.1930 C   0  0  0  0  0  0  0  0  0  0  0  0
   19.1370   14.7640   29.4370 N   0  0  0  0  0  0  0  0  0  0  0  0
   20.5890   10.6020   25.9340 C   0  0  3  0  0  0  0  0  0  0  0  0
   17.9290   15.2030   30.0190 N   0  0  0  0  0  0  0  0  0  0  0  0
   20.3910   10.3930   27.4350 C   0  0  0  0  0  0  0  0  0  0  0  0
   17.0600   14.2200   30.0010 N   0  0  0  0  0  0  0  0  0  0  0  0
   19.9310   12.6430   28.4220 C   0  0  0  0  0  0  0  0  0  0  0  0
   17.6780   13.1260   29.3890 N   0  5  0  0  0  0  0  0  0  0  0  0
   18.9330   13.4920   29.0690 C   0  0  0  0  0  0  0  0  0  0  0  0
   21.7170   11.4600   25.6780 N   0  3  0  0  0  0  0  0  0  0  0  0
   18.4090   10.4180   24.9830 N   0  0  0  0  0  0  0  0  0  0  0  0
   17.2640   10.9300   24.2620 C   0  0  3  0  0  0  0  0  0  0  0  0
   16.5390   11.9100   25.1410 C   0  0  0  0  0  0  0  0  0  0  0  0
   16.4730   11.6910   26.3370 O   0  0  0  0  0  0  0  0  0  0  0  0
   16.3560    9.7640   23.9040 C   0  0  0  0  0  0  0  0  0  0  0  0
   15.7230    9.0750   25.1210 C   0  0  0  0  0  0  0  0  0  0  0  0
   15.2930   10.2420   22.9160 C   0  0  0  0  0  0  0  0  0  0  0  0
   16.0180   13.0170   24.5930 N   0  0  0  0  0  0  0  0  0  0  0  0
   15.3270   13.9810   25.4610 C   0  0  3  0  0  0  0  0  0  0  0  0
   13.8720   13.7020   25.4540 C   0  0  0  0  0  0  0  0  0  0  0  0
   13.4220   12.9430   24.6090 O   0  0  0  0  0  0  0  0  0  0  0  0
   15.5790   15.3500   24.8510 C   0  0  0  0  0  0  0  0  0  0  0  0
   17.0610   15.7130   24.8930 C   0  0  0  0  0  0  0  0  0  0  0  0
   17.5650   15.9100   26.3270 C   0  0  0  0  0  0  0  0  0  0  0  0
   17.3010   16.9520   24.0490 C   0  0  0  0  0  0  0  0  0  0  0  0
   11.5860   16.3820   27.5420 O   0  0  0  0  0  0  0  0  0  0  0  0
   11.7420   16.0560   24.0880 O   0  0  0  0  0  0  0  0  0  0  0  0
   13.1440   14.3020   26.3930 N   0  0  0  0  0  0  0  0  0  0  0  0
   11.2140   15.6960   26.3650 C   0  0  3  0  0  0  0  0  0  0  0  0
   11.6850   14.2430   26.5700 C   0  0  0  0  0  0  0  0  0  0  0  0
    9.7030   15.8480   26.1830 C   0  0  0  0  0  0  0  0  0  0  0  0
    7.6280   17.1550   25.7540 C   0  0  0  0  0  0  0  0  0  0  0  0
    6.8450   18.2570   26.1710 C   0  0  0  0  0  0  0  0  0  0  0  0
    5.4370   18.1790   26.1470 C   0  0  0  0  0  0  0  0  0  0  0  0
    4.7870   16.9990   25.7190 C   0  0  0  0  0  0  0  0  0  0  0  0
    5.5550   15.8930   25.3130 C   0  0  0  0  0  0  0  0  0  0  0  0
    6.9650   15.9780   25.3280 C   0  0  0  0  0  0  0  0  0  0  0  0
   11.8990   16.4130   25.2380 C   0  0  0  0  0  0  0  0  0  0  0  0
    9.1530   17.2310   25.7960 C   0  0  0  0  0  0  0  0  0  0  0  0
   14.0170   18.7680   21.0370 C   0  0  0  0  0  0  0  0  0  0  0  0
   13.0990   18.0590   20.5080 O   0  0  0  0  0  0  0  0  0  0  0  0
   14.9040   19.3540   20.3570 O   0  5  0  0  0  0  0  0  0  0  0  0
   14.0290   18.9380   22.5290 C   0  0  0  0  0  0  0  0  0  0  0  0
   13.2600   18.0740   23.3400 C   0  0  0  0  0  0  0  0  0  0  0  0
   13.2730   18.2730   24.7220 C   0  0  0  0  0  0  0  0  0  0  0  0
   14.0270   19.3170   25.2720 C   0  0  0  0  0  0  0  0  0  0  0  0
   14.7820   20.1830   24.4780 C   0  0  0  0  0  0  0  0  0  0  0  0
   14.7830   19.9920   23.0790 C   0  0  0  0  0  0  0  0  0  0  0  0
   12.6340   17.4570   25.5850 N   0  0  0  0  0  0  0  0  0  0  0  0
   18.6140   11.1670   28.2660 H   0  0  0  0  0  0  0  0  0  0  0  0
   20.7470    9.5910   25.5590 H   0  0  0  0  0  0  0  0  0  0  0  0
   19.9090    9.4270   27.5870 H   0  0  0  0  0  0  0  0  0  0  0  0
   21.3700   10.3890   27.9130 H   0  0  0  0  0  0  0  0  0  0  0  0
   21.5270   12.3830   26.0420 H   0  0  0  0  0  0  0  0  0  0  0  0
   21.8780   11.5170   24.6820 H   0  0  0  0  0  0  0  0  0  0  0  0
   22.5370   11.0820   26.1300 H   0  0  0  0  0  0  0  0  0  0  0  0
   18.4090    9.4660   25.3200 H   0  0  0  0  0  0  0  0  0  0  0  0
   17.5750   11.4350   23.3480 H   0  0  0  0  0  0  0  0  0  0  0  0
   16.9770    8.9970   23.4400 H   0  0  0  0  0  0  0  0  0  0  0  0
   15.0800    9.7820   25.6450 H   0  0  0  0  0  0  0  0  0  0  0  0
   16.5090    8.7310   25.7930 H   0  0  0  0  0  0  0  0  0  0  0  0
   15.1310    8.2230   24.7890 H   0  0  0  0  0  0  0  0  0  0  0  0
   14.6770   11.0080   23.3870 H   0  0  0  0  0  0  0  0  0  0  0  0
   14.6650    9.4010   22.6220 H   0  0  0  0  0  0  0  0  0  0  0  0
   15.7780   10.6590   22.0330 H   0  0  0  0  0  0  0  0  0  0  0  0
   16.0990   13.1860   23.6000 H   0  0  0  0  0  0  0  0  0  0  0  0
   15.6840   13.9230   26.4890 H   0  0  0  0  0  0  0  0  0  0  0  0
   15.0150   16.0970   25.4100 H   0  0  0  0  0  0  0  0  0  0  0  0
   15.2450   15.3430   23.8140 H   0  0  0  0  0  0  0  0  0  0  0  0
   17.6310   14.8810   24.4790 H   0  0  0  0  0  0  0  0  0  0  0  0
   17.0250   16.7350   26.7920 H   0  0  0  0  0  0  0  0  0  0  0  0
   18.6310   16.1370   26.3100 H   0  0  0  0  0  0  0  0  0  0  0  0
   17.3970   14.9980   26.9000 H   0  0  0  0  0  0  0  0  0  0  0  0
   16.7330   17.7870   24.4600 H   0  0  0  0  0  0  0  0  0  0  0  0
   16.9790   16.7620   23.0250 H   0  0  0  0  0  0  0  0  0  0  0  0
   18.3630   17.1960   24.0560 H   0  0  0  0  0  0  0  0  0  0  0  0
   11.1600   15.9420   28.2810 H   0  0  0  0  0  0  0  0  0  0  0  0
   13.6520   14.8630   27.0620 H   0  0  0  0  0  0  0  0  0  0  0  0
   11.4320   13.8930   27.5710 H   0  0  0  0  0  0  0  0  0  0  0  0
   11.2330   13.5830   25.8290 H   0  0  0  0  0  0  0  0  0  0  0  0
    9.2340   15.5660   27.1260 H   0  0  0  0  0  0  0  0  0  0  0  0
    9.4000   15.1500   25.4030 H   0  0  0  0  0  0  0  0  0  0  0  0
    7.3280   19.1620   26.5090 H   0  0  0  0  0  0  0  0  0  0  0  0
    4.8490   19.0300   26.4590 H   0  0  0  0  0  0  0  0  0  0  0  0
    3.7080   16.9470   25.7040 H   0  0  0  0  0  0  0  0  0  0  0  0
    5.0690   14.9840   24.9910 H   0  0  0  0  0  0  0  0  0  0  0  0
    7.5500   15.1280   25.0080 H   0  0  0  0  0  0  0  0  0  0  0  0
    9.5340   17.5160   24.8150 H   0  0  0  0  0  0  0  0  0  0  0  0
    9.4640   17.9700   26.5350 H   0  0  0  0  0  0  0  0  0  0  0  0
   12.6760   17.2780   22.9020 H   0  0  0  0  0  0  0  0  0  0  0  0
   14.0250   19.4570   26.3430 H   0  0  0  0  0  0  0  0  0  0  0  0
   15.3540   20.9830   24.9250 H   0  0  0  0  0  0  0  0  0  0  0  0
   15.3550   20.6470   22.4390 H   0  0  0  0  0  0  0  0  0  0  0  0
   12.7230   17.6580   26.5710 H   0  0  0  0  0  0  0  0  0  0  0  0
  1 10  2  0  0  0  0
  2  4  2  0  0  0  0
  3  8  1  0  0  0  0
  3 10  1  0  0  0  0
  3 53  1  0  0  0  0
  4  6  1  0  0  0  0
  4 14  1  0  0  0  0
  5  7  1  0  0  0  0
  5 12  2  0  0  0  0
  6  8  1  0  0  0  0
  6 13  1  0  0  0  0
  6 54  1  0  0  0  0
  7  9  2  0  0  0  0
  8 55  1  0  0  0  0
  8 56  1  0  0  0  0
  9 11  1  0  0  0  0
 10 12  1  0  0  0  0
 11 12  1  0  0  0  0
 13 57  1  0  0  0  0
 13 58  1  0  0  0  0
 13 59  1  0  0  0  0
 14 15  1  0  0  0  0
 14 60  1  0  0  0  0
 15 16  1  0  0  0  0
 15 18  1  0  0  0  0
 15 61  1  0  0  0  0
 16 17  2  0  0  0  0
 16 21  1  0  0  0  0
 18 19  1  0  0  0  0
 18 20  1  0  0  0  0
 18 62  1  0  0  0  0
 19 63  1  0  0  0  0
 19 64  1  0  0  0  0
 19 65  1  0  0  0  0
 20 66  1  0  0  0  0
 20 67  1  0  0  0  0
 20 68  1  0  0  0  0
 21 22  1  0  0  0  0
 21 69  1  0  0  0  0
 22 23  1  0  0  0  0
 22 25  1  0  0  0  0
 22 70  1  0  0  0  0
 23 24  2  0  0  0  0
 23 31  1  0  0  0  0
 25 26  1  0  0  0  0
 25 71  1  0  0  0  0
 25 72  1  0  0  0  0
 26 27  1  0  0  0  0
 26 28  1  0  0  0  0
 26 73  1  0  0  0  0
 27 74  1  0  0  0  0
 27 75  1  0  0  0  0
 27 76  1  0  0  0  0
 28 77  1  0  0  0  0
 28 78  1  0  0  0  0
 28 79  1  0  0  0  0
 29 32  1  0  0  0  0
 29 80  1  0  0  0  0
 30 41  2  0  0  0  0
 31 33  1  0  0  0  0
 31 81  1  0  0  0  0
 32 33  1  0  0  0  0
 32 34  1  0  0  0  0
 32 41  1  0  0  0  0
 33 82  1  0  0  0  0
 33 83  1  0  0  0  0
 34 42  1  0  0  0  0
 34 84  1  0  0  0  0
 34 85  1  0  0  0  0
 35 36  1  0  0  0  0
 35 40  2  0  0  0  0
 35 42  1  0  0  0  0
 36 37  2  0  0  0  0
 36 86  1  0  0  0  0
 37 38  1  0  0  0  0
 37 87  1  0  0  0  0
 38 39  2  0  0  0  0
 38 88  1  0  0  0  0
 39 40  1  0  0  0  0
 39 89  1  0  0  0  0
 40 90  1  0  0  0  0
 41 52  1  0  0  0  0
 42 91  1  0  0  0  0
 42 92  1  0  0  0  0
 43 44  2  0  0  0  0
 43 45  1  0  0  0  0
 43 46  1  0  0  0  0
 46 47  1  0  0  0  0
 46 51  2  0  0  0  0
 47 48  2  0  0  0  0
 47 93  1  0  0  0  0
 48 49  1  0  0  0  0
 48 52  1  0  0  0  0
 49 50  2  0  0  0  0
 49 94  1  0  0  0  0
 50 51  1  0  0  0  0
 50 95  1  0  0  0  0
 51 96  1  0  0  0  0
 52 97  1  0  0  0  0
M  CHG  1  11  -1
M  CHG  1  13   1
M  CHG  1  45  -1
M  END
>  <PARENT_CMPD_ID>
3KYR

>  <STANDARD_TYPE>
IC50

>  <RELATION>
=

>  <STANDARD_VALUE>
0.19

>  <STANDARD_UNITS>
uM

>  <COMPOUND_KEY>
R-12

>  <PUBMED_ID>
21183353

>  <JOURNAL>
Bioorg. Med. Chem.

>  <YEAR>
2011

>  <VOLUME>
19

>  <FIRST_PAGE>
145

>  <Company>
Uppsala

>  <Resolution>
2.5999999

>  <idx>
117

>  <Model>
Train

>  <target>
6.7212462

>  <des_pred_mlr>
7.36658

>  <RF_Canvas>
6.9410553

>  <DNN_Canvas>
6.4454727

>  <pred_CoMFA>
6.4164

>  <pred_COMSIA>
6.1795001

>  <pred_abm5>
5.9657087

>  <pred_ff8>
7.2102556

>  <pred_gau6>
6.3457632

>  <CID>
BACE_117

>  <active>
0

>  <des_class_bayes>
1

>  <maacs_class_bayes>
1

>  <radial_class_bayes>
0

>  <dend_class_bayes>
0

>  <molprint_class_bayes>
0

>  <RF_canvas>
0

>  <DNN_canvas>
0

$$$$
4AZY_9346
  MOE2015           3D

 49 53  0  0  1  0  0  0  0  0999 V2000
   22.2720   14.0070   23.2710 C   0  0  0  0  0  0  0  0  0  0  0  0
   22.2680   13.1050   22.1970 C   0  0  0  0  0  0  0  0  0  0  0  0
   22.3030   11.7280   22.4510 C   0  0  0  0  0  0  0  0  0  0  0  0
   22.4510   11.2570   23.7610 C   0  0  0  0  0  0  0  0  0  0  0  0
   22.4850   12.1600   24.8400 C   0  0  0  0  0  0  0  0  0  0  0  0
   22.3870   13.5390   24.5880 C   0  0  0  0  0  0  0  0  0  0  0  0
   22.5490   11.6920   26.1140 F   0  0  0  0  0  0  0  0  0  0  0  0
   22.5450    9.7810   23.6610 C   0  0  0  0  0  0  0  0  0  0  0  0
   22.4490    9.3920   22.4330 N   0  3  0  0  0  0  0  0  0  0  0  0
   22.2650   10.5280   21.5040 C   0  0  3  0  0  0  0  0  0  0  0  0
   23.3860   10.7220   20.5010 C   0  0  0  0  0  0  0  0  0  0  0  0
   23.1320   11.1380   19.1810 C   0  0  0  0  0  0  0  0  0  0  0  0
   24.1830   11.3830   18.3030 C   0  0  0  0  0  0  0  0  0  0  0  0
   25.4970   11.2330   18.7420 C   0  0  0  0  0  0  0  0  0  0  0  0
   25.7750   10.8390   20.0660 C   0  0  0  0  0  0  0  0  0  0  0  0
   24.6970   10.6090   20.9270 C   0  0  0  0  0  0  0  0  0  0  0  0
   27.1900   10.7090   20.5900 C   0  0  0  0  0  0  0  0  0  0  0  0
   28.1800   11.7030   20.3440 C   0  0  0  0  0  0  0  0  0  0  0  0
   29.4020   11.5980   20.8890 N   0  0  0  0  0  0  0  0  0  0  0  0
   29.6350   10.5390   21.6740 C   0  0  0  0  0  0  0  0  0  0  0  0
   28.7780    9.5620   21.9700 N   0  0  0  0  0  0  0  0  0  0  0  0
   27.5620    9.6260   21.4230 C   0  0  0  0  0  0  0  0  0  0  0  0
   26.5140   11.4890   17.9130 F   0  0  0  0  0  0  0  0  0  0  0  0
   20.9220   10.3120   20.7970 C   0  0  0  0  0  0  0  0  0  0  0  0
   19.9520   11.3300   20.7050 C   0  0  0  0  0  0  0  0  0  0  0  0
   18.7270   11.0910   20.0780 C   0  0  0  0  0  0  0  0  0  0  0  0
   18.4550    9.9540   19.4630 N   0  0  0  0  0  0  0  0  0  0  0  0
   19.3650    8.9840   19.5140 C   0  0  0  0  0  0  0  0  0  0  0  0
   20.5970    9.0890   20.1690 C   0  0  0  0  0  0  0  0  0  0  0  0
   18.9960    7.6780   18.8550 C   0  0  0  0  0  0  0  0  0  0  0  0
   19.0110    7.8260   17.4860 F   0  0  0  0  0  0  0  0  0  0  0  0
   19.8750    6.6610   19.1770 F   0  0  0  0  0  0  0  0  0  0  0  0
   17.7550    7.2350   19.2620 F   0  0  0  0  0  0  0  0  0  0  0  0
   22.7300    8.9260   24.7230 N   0  0  0  0  0  0  0  0  0  0  0  0
   22.1860   15.0670   23.0830 H   0  0  0  0  0  0  0  0  0  0  0  0
   22.2380   13.4700   21.1810 H   0  0  0  0  0  0  0  0  0  0  0  0
   22.4000   14.2400   25.4100 H   0  0  0  0  0  0  0  0  0  0  0  0
   22.1130   11.2680   18.8470 H   0  0  0  0  0  0  0  0  0  0  0  0
   23.9820   11.6880   17.2870 H   0  0  0  0  0  0  0  0  0  0  0  0
   24.8940   10.3360   21.9530 H   0  0  0  0  0  0  0  0  0  0  0  0
   27.9450   12.5480   19.7140 H   0  0  0  0  0  0  0  0  0  0  0  0
   30.6190   10.4690   22.1130 H   0  0  0  0  0  0  0  0  0  0  0  0
   26.8500    8.8380   21.6190 H   0  0  0  0  0  0  0  0  0  0  0  0
   20.1580   12.3040   21.1230 H   0  0  0  0  0  0  0  0  0  0  0  0
   17.9740   11.8650   20.0970 H   0  0  0  0  0  0  0  0  0  0  0  0
   21.2830    8.2550   20.1940 H   0  0  0  0  0  0  0  0  0  0  0  0
   22.7980    7.9310   24.5640 H   0  0  0  0  0  0  0  0  0  0  0  0
   22.7970    9.2930   25.6610 H   0  0  0  0  0  0  0  0  0  0  0  0
   22.4940    8.4260   22.1420 H   0  0  0  0  0  0  0  0  0  0  0  0
  1  2  1  0  0  0  0
  1  6  2  0  0  0  0
  1 35  1  0  0  0  0
  2  3  2  0  0  0  0
  2 36  1  0  0  0  0
  3  4  1  0  0  0  0
  3 10  1  0  0  0  0
  4  5  2  0  0  0  0
  4  8  1  0  0  0  0
  5  6  1  0  0  0  0
  5  7  1  0  0  0  0
  6 37  1  0  0  0  0
  8  9  2  0  0  0  0
  8 34  1  0  0  0  0
  9 10  1  0  0  0  0
  9 49  1  0  0  0  0
 10 11  1  0  0  0  0
 10 24  1  0  0  0  0
 11 12  1  0  0  0  0
 11 16  2  0  0  0  0
 12 13  2  0  0  0  0
 12 38  1  0  0  0  0
 13 14  1  0  0  0  0
 13 39  1  0  0  0  0
 14 15  2  0  0  0  0
 14 23  1  0  0  0  0
 15 16  1  0  0  0  0
 15 17  1  0  0  0  0
 16 40  1  0  0  0  0
 17 18  1  0  0  0  0
 17 22  2  0  0  0  0
 18 19  2  0  0  0  0
 18 41  1  0  0  0  0
 19 20  1  0  0  0  0
 20 21  2  0  0  0  0
 20 42  1  0  0  0  0
 21 22  1  0  0  0  0
 22 43  1  0  0  0  0
 24 25  1  0  0  0  0
 24 29  2  0  0  0  0
 25 26  2  0  0  0  0
 25 44  1  0  0  0  0
 26 27  1  0  0  0  0
 26 45  1  0  0  0  0
 27 28  2  0  0  0  0
 28 29  1  0  0  0  0
 28 30  1  0  0  0  0
 29 46  1  0  0  0  0
 30 31  1  0  0  0  0
 30 32  1  0  0  0  0
 30 33  1  0  0  0  0
 34 47  1  0  0  0  0
 34 48  1  0  0  0  0
M  CHG  1   9   1
M  END
>  <PARENT_CMPD_ID>
4AZY

>  <STANDARD_TYPE>
IC50

>  <RELATION>
=

>  <STANDARD_VALUE>
0.198

>  <STANDARD_UNITS>
uM

>  <COMPOUND_KEY>
(S)-10

>  <PUBMED_ID>
22924815

>  <JOURNAL>
J.Med.Chem.

>  <YEAR>
2012

>  <VOLUME>
55

>  <FIRST_PAGE>
9346

>  <Company>
AstraZeneca

>  <Resolution>
1.79

>  <idx>
118

>  <Model>
Train

>  <target>
6.7033348

>  <des_pred_mlr>
7.2177601

>  <RF_Canvas>
6.9504118

>  <DNN_Canvas>
6.6536236

>  <pred_CoMFA>
6.9496002

>  <pred_COMSIA>
7.0760002

>  <pred_abm5>
6.6140285

>  <pred_ff8>
4.8681746

>  <pred_gau6>
6.7269497

>  <CID>
BACE_118

>  <active>
0

>  <des_class_bayes>
1

>  <maacs_class_bayes>
0

>  <radial_class_bayes>
0

>  <dend_class_bayes>
0

>  <molprint_class_bayes>
0

>  <RF_canvas>
0

>  <DNN_canvas>
1

$$$$
2VA7_5912
  MOE2015           3D

 51 53  0  0  1  0  0  0  0  0999 V2000
   30.8440    8.3050   23.5970 C   0  0  0  0  0  0  0  0  0  0  0  0
   29.7310    8.6250   22.7530 O   0  0  0  0  0  0  0  0  0  0  0  0
   29.8000    9.7730   22.0060 C   0  0  0  0  0  0  0  0  0  0  0  0
   30.7590   10.7690   21.8730 C   0  0  0  0  0  0  0  0  0  0  0  0
   30.5470   11.8330   21.0280 C   0  0  0  0  0  0  0  0  0  0  0  0
   29.3730   11.9230   20.3120 C   0  0  0  0  0  0  0  0  0  0  0  0
   28.3910   10.9410   20.4310 C   0  0  0  0  0  0  0  0  0  0  0  0
   28.6270    9.8660   21.2830 C   0  0  0  0  0  0  0  0  0  0  0  0
   27.1240   11.0260   19.6480 C   0  0  0  0  0  0  0  0  0  0  0  0
   27.1030   11.6160   18.3850 C   0  0  0  0  0  0  0  0  0  0  0  0
   25.9210   11.7170   17.6780 C   0  0  0  0  0  0  0  0  0  0  0  0
   24.7520   11.2080   18.2030 C   0  0  0  0  0  0  0  0  0  0  0  0
   24.7430   10.6170   19.4630 C   0  0  0  0  0  0  0  0  0  0  0  0
   23.4690   10.0530   20.0390 C   0  0  0  0  0  0  0  0  0  0  0  0
   22.6810   11.0790   20.8300 C   0  0  0  0  0  0  0  0  0  0  0  0
   21.5060   10.5180   21.6850 C   0  0  3  0  0  0  0  0  0  0  0  0
   20.5220    9.7330   20.8040 C   0  0  0  0  0  0  0  0  0  0  0  0
   20.7990   11.6940   22.3640 C   0  0  0  0  0  0  0  0  0  0  0  0
   21.6460   12.3320   23.4230 C   0  0  0  0  0  0  0  0  0  0  0  0
   21.5830   13.5210   23.6650 O   0  0  0  0  0  0  0  0  0  0  0  0
   22.4750   11.4920   24.1180 N   0  0  0  0  0  0  0  0  0  0  0  0
   23.4110   12.0820   25.0850 C   0  0  0  0  0  0  0  0  0  0  0  0
   22.4630   10.0990   23.8660 C   0  0  0  0  0  0  0  0  0  0  0  0
   22.0260    9.5960   22.7320 N   0  0  0  0  0  0  0  0  0  0  0  0
   22.9730    9.2820   24.7870 N   0  0  0  0  0  0  0  0  0  0  0  0
   25.9320   10.5370   20.1740 C   0  0  0  0  0  0  0  0  0  0  0  0
   30.6440    7.3720   24.1240 H   0  0  0  0  0  0  0  0  0  0  0  0
   30.9930    9.1060   24.3210 H   0  0  0  0  0  0  0  0  0  0  0  0
   31.7410    8.1940   22.9880 H   0  0  0  0  0  0  0  0  0  0  0  0
   31.6780   10.7070   22.4370 H   0  0  0  0  0  0  0  0  0  0  0  0
   31.3010   12.5990   20.9250 H   0  0  0  0  0  0  0  0  0  0  0  0
   29.2120   12.7630   19.6520 H   0  0  0  0  0  0  0  0  0  0  0  0
   27.8800    9.0920   21.3800 H   0  0  0  0  0  0  0  0  0  0  0  0
   28.0180   11.9970   17.9560 H   0  0  0  0  0  0  0  0  0  0  0  0
   25.9120   12.1960   16.7100 H   0  0  0  0  0  0  0  0  0  0  0  0
   23.8370   11.2680   17.6320 H   0  0  0  0  0  0  0  0  0  0  0  0
   23.7220    9.2230   20.6990 H   0  0  0  0  0  0  0  0  0  0  0  0
   22.8470    9.6900   19.2210 H   0  0  0  0  0  0  0  0  0  0  0  0
   22.2670   11.8000   20.1250 H   0  0  0  0  0  0  0  0  0  0  0  0
   23.3730   11.5860   21.5030 H   0  0  0  0  0  0  0  0  0  0  0  0
   20.1270   10.3880   20.0280 H   0  0  0  0  0  0  0  0  0  0  0  0
   19.7020    9.3610   21.4180 H   0  0  0  0  0  0  0  0  0  0  0  0
   21.0390    8.8930   20.3410 H   0  0  0  0  0  0  0  0  0  0  0  0
   19.8780   11.3320   22.8220 H   0  0  0  0  0  0  0  0  0  0  0  0
   20.5590   12.4420   21.6090 H   0  0  0  0  0  0  0  0  0  0  0  0
   23.2570   13.1600   25.1290 H   0  0  0  0  0  0  0  0  0  0  0  0
   24.4350   11.8740   24.7730 H   0  0  0  0  0  0  0  0  0  0  0  0
   23.2360   11.6500   26.0700 H   0  0  0  0  0  0  0  0  0  0  0  0
   23.0210    8.2890   24.6100 H   0  0  0  0  0  0  0  0  0  0  0  0
   23.3120    9.6560   25.6620 H   0  0  0  0  0  0  0  0  0  0  0  0
   25.9320   10.0860   21.1550 H   0  0  0  0  0  0  0  0  0  0  0  0
  1  2  1  0  0  0  0
  1 27  1  0  0  0  0
  1 28  1  0  0  0  0
  1 29  1  0  0  0  0
  2  3  1  0  0  0  0
  3  4  1  0  0  0  0
  3  8  2  0  0  0  0
  4  5  2  0  0  0  0
  4 30  1  0  0  0  0
  5  6  1  0  0  0  0
  5 31  1  0  0  0  0
  6  7  2  0  0  0  0
  6 32  1  0  0  0  0
  7  8  1  0  0  0  0
  7  9  1  0  0  0  0
  8 33  1  0  0  0  0
  9 10  1  0  0  0  0
  9 26  2  0  0  0  0
 10 11  2  0  0  0  0
 10 34  1  0  0  0  0
 11 12  1  0  0  0  0
 11 35  1  0  0  0  0
 12 13  2  0  0  0  0
 12 36  1  0  0  0  0
 13 14  1  0  0  0  0
 13 26  1  0  0  0  0
 14 15  1  0  0  0  0
 14 37  1  0  0  0  0
 14 38  1  0  0  0  0
 15 16  1  0  0  0  0
 15 39  1  0  0  0  0
 15 40  1  0  0  0  0
 16 17  1  0  0  0  0
 16 18  1  0  0  0  0
 16 24  1  0  0  0  0
 17 41  1  0  0  0  0
 17 42  1  0  0  0  0
 17 43  1  0  0  0  0
 18 19  1  0  0  0  0
 18 44  1  0  0  0  0
 18 45  1  0  0  0  0
 19 20  2  0  0  0  0
 19 21  1  0  0  0  0
 21 22  1  0  0  0  0
 21 23  1  0  0  0  0
 22 46  1  0  0  0  0
 22 47  1  0  0  0  0
 22 48  1  0  0  0  0
 23 24  2  0  0  0  0
 23 25  1  0  0  0  0
 25 49  1  0  0  0  0
 25 50  1  0  0  0  0
 26 51  1  0  0  0  0
M  END
>  <PARENT_CMPD_ID>
2VA7

>  <STANDARD_TYPE>
IC50

>  <RELATION>
=

>  <STANDARD_VALUE>
0.2

>  <STANDARD_UNITS>
uM

>  <COMPOUND_KEY>
27

>  <PUBMED_ID>
17985862

>  <JOURNAL>
J.Med.Chem.

>  <YEAR>
2007

>  <VOLUME>
50

>  <FIRST_PAGE>
5912

>  <Company>
AstraZeneca

>  <Resolution>
2.2

>  <idx>
119

>  <Model>
Train

>  <target>
6.6989698

>  <des_pred_mlr>
6.16851

>  <RF_Canvas>
6.479537

>  <DNN_Canvas>
6.577383

>  <pred_CoMFA>
6.3589001

>  <pred_COMSIA>
6.1339998

>  <pred_abm5>
5.9198403

>  <pred_ff8>
5.8040123

>  <pred_gau6>
6.1744051

>  <CID>
BACE_119

>  <active>
0

>  <des_class_bayes>
0

>  <maacs_class_bayes>
0

>  <radial_class_bayes>
0

>  <dend_class_bayes>
0

>  <molprint_class_bayes>
0

>  <RF_canvas>
0

>  <DNN_canvas>
0

$$$$
2IS0_7270
  MOE2015           3D

 72 74  0  0  1  0  0  0  0  0999 V2000
   30.0590    9.2120   23.2740 C   0  0  0  0  0  0  0  0  0  0  0  0
   30.5100   10.2710   22.3660 C   0  0  0  0  0  0  0  0  0  0  0  0
   31.8940   10.6830   22.2310 C   0  0  0  0  0  0  0  0  0  0  0  0
   32.8810    9.9920   23.0260 C   0  0  0  0  0  0  0  0  0  0  0  0
   32.4220    8.8960   23.8430 C   0  0  0  0  0  0  0  0  0  0  0  0
   31.0440    8.4770   23.9900 C   0  0  0  0  0  0  0  0  0  0  0  0
   29.5180   10.9870   21.4890 C   0  0  3  0  0  0  0  0  0  0  0  0
   28.5210   11.7560   22.2340 N   0  0  0  0  0  0  0  0  0  0  0  0
   28.5500   13.1180   22.3910 C   0  0  0  0  0  0  0  0  0  0  0  0
   27.4580   13.7260   23.2100 C   0  0  0  0  0  0  0  0  0  0  0  0
   26.0600   13.3070   23.2230 C   0  0  0  0  0  0  0  0  0  0  0  0
   25.1250   13.9490   24.1320 C   0  0  0  0  0  0  0  0  0  0  0  0
   25.5760   14.9590   25.0130 C   0  0  0  0  0  0  0  0  0  0  0  0
   26.9240   15.4120   25.0100 C   0  0  0  0  0  0  0  0  0  0  0  0
   27.8500   14.7850   24.0950 C   0  0  0  0  0  0  0  0  0  0  0  0
   27.2490   16.4320   25.8910 N   0  0  0  0  0  0  0  0  0  0  0  0
   28.6300   16.4670   26.7480 S   0  0  0  0  0  0  0  0  0  0  0  0
   29.7970   17.5350   25.9200 C   0  0  0  0  0  0  0  0  0  0  0  0
   26.4470   17.6650   25.9980 C   0  0  0  0  0  0  0  0  0  0  0  0
   29.4440   13.7900   21.8840 O   0  0  0  0  0  0  0  0  0  0  0  0
   29.1530   15.1390   26.7560 O   0  0  0  0  0  0  0  0  0  0  0  0
   28.2610   17.1020   27.9780 O   0  0  0  0  0  0  0  0  0  0  0  0
   28.7610    9.9830   20.5580 C   0  0  0  0  0  0  0  0  0  0  0  0
   33.3270    8.1830   24.5150 F   0  0  0  0  0  0  0  0  0  0  0  0
   23.6880   13.6860   24.1870 C   0  0  0  0  0  0  0  0  0  0  0  0
   23.4090   12.4120   23.8480 O   0  0  0  0  0  0  0  0  0  0  0  0
   22.8690   14.4910   24.5080 O   0  0  0  0  0  0  0  0  0  0  0  0
   22.0510   11.8230   23.9720 C   0  0  0  0  0  0  0  0  0  0  0  0
   22.1060   10.4300   23.4080 C   0  0  3  0  0  0  0  0  0  0  0  0
   23.3260    9.7760   23.8870 N   0  3  0  0  0  0  0  0  0  0  0  0
   20.9310    9.5750   23.9500 C   0  0  0  0  0  0  0  0  0  0  0  0
   19.9900    9.8090   23.4430 H   0  0  0  0  0  0  0  0  0  0  0  0
   20.7960    9.7080   25.0290 H   0  0  0  0  0  0  0  0  0  0  0  0
   22.0740   10.3750   21.8680 C   0  0  0  0  0  0  0  0  0  0  0  0
   25.2990   11.9000   19.3580 C   0  0  0  0  0  0  0  0  0  0  0  0
   24.3110   12.8400   19.8730 C   0  0  0  0  0  0  0  0  0  0  0  0
   23.2700   12.3510   20.7530 C   0  0  0  0  0  0  0  0  0  0  0  0
   23.2410   10.9220   21.0820 C   0  0  0  0  0  0  0  0  0  0  0  0
   24.2620    9.9920   20.6130 C   0  0  0  0  0  0  0  0  0  0  0  0
   25.3050   10.4860   19.7240 C   0  0  0  0  0  0  0  0  0  0  0  0
   21.2620    8.2000   23.7280 O   0  0  0  0  0  0  0  0  0  0  0  0
   20.4880    7.6690   23.9970 H   0  0  0  0  0  0  0  0  0  0  0  0
   29.0080    8.9960   23.3960 H   0  0  0  0  0  0  0  0  0  0  0  0
   32.1770   11.4800   21.5590 H   0  0  0  0  0  0  0  0  0  0  0  0
   33.9210   10.2840   23.0100 H   0  0  0  0  0  0  0  0  0  0  0  0
   30.7750    7.6400   24.6180 H   0  0  0  0  0  0  0  0  0  0  0  0
   30.1150   11.6850   20.9030 H   0  0  0  0  0  0  0  0  0  0  0  0
   27.7590   11.2490   22.6620 H   0  0  0  0  0  0  0  0  0  0  0  0
   25.7220   12.5240   22.5610 H   0  0  0  0  0  0  0  0  0  0  0  0
   24.8760   15.3990   25.7080 H   0  0  0  0  0  0  0  0  0  0  0  0
   28.8750   15.1260   24.0770 H   0  0  0  0  0  0  0  0  0  0  0  0
   30.1000   17.0800   24.9770 H   0  0  0  0  0  0  0  0  0  0  0  0
   30.6730   17.6760   26.5530 H   0  0  0  0  0  0  0  0  0  0  0  0
   29.3310   18.5010   25.7250 H   0  0  0  0  0  0  0  0  0  0  0  0
   25.5420   17.5630   25.3990 H   0  0  0  0  0  0  0  0  0  0  0  0
   27.0310   18.5110   25.6340 H   0  0  0  0  0  0  0  0  0  0  0  0
   26.1750   17.8320   27.0400 H   0  0  0  0  0  0  0  0  0  0  0  0
   28.1720    9.2970   21.1660 H   0  0  0  0  0  0  0  0  0  0  0  0
   29.4840    9.4180   19.9690 H   0  0  0  0  0  0  0  0  0  0  0  0
   28.1000   10.5350   19.8900 H   0  0  0  0  0  0  0  0  0  0  0  0
   21.3330   12.4230   23.4120 H   0  0  0  0  0  0  0  0  0  0  0  0
   21.7550   11.7880   25.0210 H   0  0  0  0  0  0  0  0  0  0  0  0
   23.3520    9.8090   24.8960 H   0  0  0  0  0  0  0  0  0  0  0  0
   24.1330   10.2540   23.5140 H   0  0  0  0  0  0  0  0  0  0  0  0
   23.3340    8.8130   23.5820 H   0  0  0  0  0  0  0  0  0  0  0  0
   21.1900   10.9270   21.5490 H   0  0  0  0  0  0  0  0  0  0  0  0
   21.9680    9.3260   21.5900 H   0  0  0  0  0  0  0  0  0  0  0  0
   26.0560   12.2630   18.6790 H   0  0  0  0  0  0  0  0  0  0  0  0
   24.3550   13.8850   19.6030 H   0  0  0  0  0  0  0  0  0  0  0  0
   22.5300   13.0250   21.1590 H   0  0  0  0  0  0  0  0  0  0  0  0
   24.2450    8.9560   20.9190 H   0  0  0  0  0  0  0  0  0  0  0  0
   26.0660    9.8210   19.3440 H   0  0  0  0  0  0  0  0  0  0  0  0
  1  2  1  0  0  0  0
  1  6  2  0  0  0  0
  1 43  1  0  0  0  0
  2  3  2  0  0  0  0
  2  7  1  0  0  0  0
  3  4  1  0  0  0  0
  3 44  1  0  0  0  0
  4  5  2  0  0  0  0
  4 45  1  0  0  0  0
  5  6  1  0  0  0  0
  5 24  1  0  0  0  0
  6 46  1  0  0  0  0
  7  8  1  0  0  0  0
  7 23  1  0  0  0  0
  7 47  1  0  0  0  0
  8  9  1  0  0  0  0
  8 48  1  0  0  0  0
  9 10  1  0  0  0  0
  9 20  2  0  0  0  0
 10 11  1  0  0  0  0
 10 15  2  0  0  0  0
 11 12  2  0  0  0  0
 11 49  1  0  0  0  0
 12 13  1  0  0  0  0
 12 25  1  0  0  0  0
 13 14  2  0  0  0  0
 13 50  1  0  0  0  0
 14 15  1  0  0  0  0
 14 16  1  0  0  0  0
 15 51  1  0  0  0  0
 16 17  1  0  0  0  0
 16 19  1  0  0  0  0
 17 18  1  0  0  0  0
 17 21  2  0  0  0  0
 17 22  2  0  0  0  0
 18 52  1  0  0  0  0
 18 53  1  0  0  0  0
 18 54  1  0  0  0  0
 19 55  1  0  0  0  0
 19 56  1  0  0  0  0
 19 57  1  0  0  0  0
 23 58  1  0  0  0  0
 23 59  1  0  0  0  0
 23 60  1  0  0  0  0
 25 26  1  0  0  0  0
 25 27  2  0  0  0  0
 26 28  1  0  0  0  0
 28 29  1  0  0  0  0
 28 61  1  0  0  0  0
 28 62  1  0  0  0  0
 29 30  1  0  0  0  0
 29 31  1  0  0  0  0
 29 34  1  0  0  0  0
 30 63  1  0  0  0  0
 30 64  1  0  0  0  0
 30 65  1  0  0  0  0
 31 32  1  0  0  0  0
 31 33  1  0  0  0  0
 31 41  1  0  0  0  0
 34 38  1  0  0  0  0
 34 66  1  0  0  0  0
 34 67  1  0  0  0  0
 35 36  1  0  0  0  0
 35 40  2  0  0  0  0
 35 68  1  0  0  0  0
 36 37  2  0  0  0  0
 36 69  1  0  0  0  0
 37 38  1  0  0  0  0
 37 70  1  0  0  0  0
 38 39  2  0  0  0  0
 39 40  1  0  0  0  0
 39 71  1  0  0  0  0
 40 72  1  0  0  0  0
 41 42  1  0  0  0  0
M  CHG  1  30   1
M  END
>  <PARENT_CMPD_ID>
2IS0

>  <STANDARD_TYPE>
IC50

>  <RELATION>
=

>  <STANDARD_VALUE>
0.2

>  <STANDARD_UNITS>
uM

>  <COMPOUND_KEY>
3

>  <PUBMED_ID>
17149856

>  <JOURNAL>
J.Med.Chem.

>  <YEAR>
2006

>  <VOLUME>
49

>  <FIRST_PAGE>
7270

>  <Company>
Merck

>  <Resolution>
2.2

>  <idx>
120

>  <Model>
Train

>  <target>
6.6989698

>  <des_pred_mlr>
6.76091

>  <RF_Canvas>
7.0083404

>  <DNN_Canvas>
6.6735959

>  <pred_CoMFA>
6.7045999

>  <pred_COMSIA>
6.5714002

>  <pred_abm5>
7.0764923

>  <pred_ff8>
7.094872

>  <pred_gau6>
7.1606722

>  <CID>
BACE_120

>  <active>
0

>  <des_class_bayes>
1

>  <maacs_class_bayes>
1

>  <radial_class_bayes>
0

>  <dend_class_bayes>
0

>  <molprint_class_bayes>
0

>  <RF_canvas>
0

>  <DNN_canvas>
0

$$$$
2WF0_3664
  MOE2015           3D

 80 84  0  0  1  0  0  0  0  0999 V2000
   28.0260   13.3760   22.5530 C   0  0  0  0  0  0  0  0  0  0  0  0
   26.7020   12.8100   22.5380 C   0  0  0  0  0  0  0  0  0  0  0  0
   25.6960   13.2860   23.4390 C   0  0  0  0  0  0  0  0  0  0  0  0
   25.9980   14.3270   24.3620 C   0  0  0  0  0  0  0  0  0  0  0  0
   27.2950   14.9010   24.3950 C   0  0  0  0  0  0  0  0  0  0  0  0
   28.3160   14.4440   23.4990 C   0  0  0  0  0  0  0  0  0  0  0  0
   24.3380   12.7320   23.4320 C   0  0  0  0  0  0  0  0  0  0  0  0
   24.2700   11.3700   23.3640 N   0  0  0  0  0  0  0  0  0  0  0  0
   23.3120   13.4240   23.4520 O   0  0  0  0  0  0  0  0  0  0  0  0
   23.0650   10.6640   22.8890 C   0  0  3  0  0  0  0  0  0  0  0  0
   23.4850    9.6830   21.7690 C   0  0  0  0  0  0  0  0  0  0  0  0
   22.3660    9.9480   24.0670 C   0  0  3  0  0  0  0  0  0  0  0  0
   21.2250    9.2630   23.6210 O   0  0  0  0  0  0  0  0  0  0  0  0
   24.2250   10.3440   20.6120 C   0  0  0  0  0  0  0  0  0  0  0  0
   21.9280   10.9120   25.1710 C   0  0  0  0  0  0  0  0  0  0  0  0
   21.2540   10.2090   26.2720 N   0  3  0  0  0  0  0  0  0  0  0  0
   20.2740   10.9960   27.0570 C   0  0  0  0  0  0  0  0  0  0  0  0
   25.3200    9.6690   20.0160 C   0  0  0  0  0  0  0  0  0  0  0  0
   26.0410   10.2540   18.9470 C   0  0  0  0  0  0  0  0  0  0  0  0
   25.6810   11.5340   18.4630 C   0  0  0  0  0  0  0  0  0  0  0  0
   24.5860   12.2240   19.0470 C   0  0  0  0  0  0  0  0  0  0  0  0
   23.8660   11.6350   20.1110 C   0  0  0  0  0  0  0  0  0  0  0  0
   29.0790   12.9270   21.6540 C   0  0  0  0  0  0  0  0  0  0  0  0
   27.5820   18.0440   26.3040 C   0  0  0  0  0  0  0  0  0  0  0  0
   28.4800   17.0880   27.0990 C   0  0  0  0  0  0  0  0  0  0  0  0
   28.3990   15.7600   26.3640 C   0  0  0  0  0  0  0  0  0  0  0  0
   27.5830   15.9090   25.2800 N   0  0  0  0  0  0  0  0  0  0  0  0
   27.0250   17.2480   25.1290 C   0  0  0  0  0  0  0  0  0  0  0  0
   29.0050   14.7520   26.7330 O   0  0  0  0  0  0  0  0  0  0  0  0
   30.5680   14.5800   22.6700 C   0  0  0  0  0  0  0  0  0  0  0  0
   29.5950   15.0020   23.5140 N   0  0  0  0  0  0  0  0  0  0  0  0
   29.3360   10.4500   21.1400 C   0  0  0  0  0  0  0  0  0  0  0  0
   28.8920   11.8240   20.6300 C   0  0  0  0  0  0  0  0  0  0  0  0
   17.1730   11.2350   24.7550 C   0  0  0  0  0  0  0  0  0  0  0  0
   17.0120   12.6530   24.6830 C   0  0  0  0  0  0  0  0  0  0  0  0
   17.8990   13.5130   25.3700 C   0  0  0  0  0  0  0  0  0  0  0  0
   18.9550   12.9750   26.1400 C   0  0  0  0  0  0  0  0  0  0  0  0
   19.1380   11.5670   26.2310 C   0  0  0  0  0  0  0  0  0  0  0  0
   18.2450   10.7120   25.5390 C   0  0  0  0  0  0  0  0  0  0  0  0
   16.2420   10.2690   24.0310 C   0  0  0  0  0  0  0  0  0  0  0  0
   15.7020    9.4680   24.9270 F   0  0  0  0  0  0  0  0  0  0  0  0
   16.9630    9.5700   23.1770 F   0  0  0  0  0  0  0  0  0  0  0  0
   15.3010   10.9190   23.3680 F   0  0  0  0  0  0  0  0  0  0  0  0
   30.3510   13.5490   21.7320 C   0  0  0  0  0  0  0  0  0  0  0  0
   26.4660   12.0200   21.8410 H   0  0  0  0  0  0  0  0  0  0  0  0
   25.2360   14.6810   25.0400 H   0  0  0  0  0  0  0  0  0  0  0  0
   25.0730   10.8270   23.6490 H   0  0  0  0  0  0  0  0  0  0  0  0
   22.3410   11.3680   22.4790 H   0  0  0  0  0  0  0  0  0  0  0  0
   22.5870    9.2080   21.3750 H   0  0  0  0  0  0  0  0  0  0  0  0
   24.1360    8.9250   22.2040 H   0  0  0  0  0  0  0  0  0  0  0  0
   23.1040    9.2580   24.4760 H   0  0  0  0  0  0  0  0  0  0  0  0
   20.6120    9.9150   23.2730 H   0  0  0  0  0  0  0  0  0  0  0  0
   21.2420   11.6450   24.7480 H   0  0  0  0  0  0  0  0  0  0  0  0
   22.8080   11.4220   25.5640 H   0  0  0  0  0  0  0  0  0  0  0  0
   21.9660    9.8820   26.9090 H   0  0  0  0  0  0  0  0  0  0  0  0
   20.7660    9.4170   25.8780 H   0  0  0  0  0  0  0  0  0  0  0  0
   20.8010   11.8230   27.5330 H   0  0  0  0  0  0  0  0  0  0  0  0
   19.8490   10.3480   27.8230 H   0  0  0  0  0  0  0  0  0  0  0  0
   25.6080    8.6950   20.3830 H   0  0  0  0  0  0  0  0  0  0  0  0
   26.8680    9.7220   18.5000 H   0  0  0  0  0  0  0  0  0  0  0  0
   26.2360   11.9840   17.6530 H   0  0  0  0  0  0  0  0  0  0  0  0
   24.3030   13.1990   18.6780 H   0  0  0  0  0  0  0  0  0  0  0  0
   23.0350   12.1660   20.5510 H   0  0  0  0  0  0  0  0  0  0  0  0
   28.1640   18.8910   25.9410 H   0  0  0  0  0  0  0  0  0  0  0  0
   26.7680   18.4050   26.9330 H   0  0  0  0  0  0  0  0  0  0  0  0
   28.1150   16.9820   28.1210 H   0  0  0  0  0  0  0  0  0  0  0  0
   29.5070   17.4530   27.1160 H   0  0  0  0  0  0  0  0  0  0  0  0
   27.3400   17.6900   24.1840 H   0  0  0  0  0  0  0  0  0  0  0  0
   25.9360   17.2160   25.1700 H   0  0  0  0  0  0  0  0  0  0  0  0
   31.5400   15.0480   22.7170 H   0  0  0  0  0  0  0  0  0  0  0  0
   29.1770    9.7040   20.3610 H   0  0  0  0  0  0  0  0  0  0  0  0
   28.7530   10.1840   22.0220 H   0  0  0  0  0  0  0  0  0  0  0  0
   30.3940   10.4830   21.4000 H   0  0  0  0  0  0  0  0  0  0  0  0
   29.4770   12.0710   19.7440 H   0  0  0  0  0  0  0  0  0  0  0  0
   27.8360   11.7710   20.3660 H   0  0  0  0  0  0  0  0  0  0  0  0
   16.2060   13.0710   24.0990 H   0  0  0  0  0  0  0  0  0  0  0  0
   17.7690   14.5830   25.3060 H   0  0  0  0  0  0  0  0  0  0  0  0
   19.6280   13.6380   26.6630 H   0  0  0  0  0  0  0  0  0  0  0  0
   18.3780    9.6420   25.6060 H   0  0  0  0  0  0  0  0  0  0  0  0
   31.1500   13.2350   21.0760 H   0  0  0  0  0  0  0  0  0  0  0  0
  1  2  1  0  0  0  0
  1  6  2  0  0  0  0
  1 23  1  0  0  0  0
  2  3  2  0  0  0  0
  2 45  1  0  0  0  0
  3  4  1  0  0  0  0
  3  7  1  0  0  0  0
  4  5  2  0  0  0  0
  4 46  1  0  0  0  0
  5  6  1  0  0  0  0
  5 27  1  0  0  0  0
  6 31  1  0  0  0  0
  7  8  1  0  0  0  0
  7  9  2  0  0  0  0
  8 10  1  0  0  0  0
  8 47  1  0  0  0  0
 10 11  1  0  0  0  0
 10 12  1  0  0  0  0
 10 48  1  0  0  0  0
 11 14  1  0  0  0  0
 11 49  1  0  0  0  0
 11 50  1  0  0  0  0
 12 13  1  0  0  0  0
 12 15  1  0  0  0  0
 12 51  1  0  0  0  0
 13 52  1  0  0  0  0
 14 18  1  0  0  0  0
 14 22  2  0  0  0  0
 15 16  1  0  0  0  0
 15 53  1  0  0  0  0
 15 54  1  0  0  0  0
 16 17  1  0  0  0  0
 16 55  1  0  0  0  0
 16 56  1  0  0  0  0
 17 38  1  0  0  0  0
 17 57  1  0  0  0  0
 17 58  1  0  0  0  0
 18 19  2  0  0  0  0
 18 59  1  0  0  0  0
 19 20  1  0  0  0  0
 19 60  1  0  0  0  0
 20 21  2  0  0  0  0
 20 61  1  0  0  0  0
 21 22  1  0  0  0  0
 21 62  1  0  0  0  0
 22 63  1  0  0  0  0
 23 33  1  0  0  0  0
 23 44  2  0  0  0  0
 24 25  1  0  0  0  0
 24 28  1  0  0  0  0
 24 64  1  0  0  0  0
 24 65  1  0  0  0  0
 25 26  1  0  0  0  0
 25 66  1  0  0  0  0
 25 67  1  0  0  0  0
 26 27  1  0  0  0  0
 26 29  2  0  0  0  0
 27 28  1  0  0  0  0
 28 68  1  0  0  0  0
 28 69  1  0  0  0  0
 30 31  2  0  0  0  0
 30 44  1  0  0  0  0
 30 70  1  0  0  0  0
 32 33  1  0  0  0  0
 32 71  1  0  0  0  0
 32 72  1  0  0  0  0
 32 73  1  0  0  0  0
 33 74  1  0  0  0  0
 33 75  1  0  0  0  0
 34 35  1  0  0  0  0
 34 39  2  0  0  0  0
 34 40  1  0  0  0  0
 35 36  2  0  0  0  0
 35 76  1  0  0  0  0
 36 37  1  0  0  0  0
 36 77  1  0  0  0  0
 37 38  2  0  0  0  0
 37 78  1  0  0  0  0
 38 39  1  0  0  0  0
 39 79  1  0  0  0  0
 40 41  1  0  0  0  0
 40 42  1  0  0  0  0
 40 43  1  0  0  0  0
 44 80  1  0  0  0  0
M  CHG  1  16   1
M  END
>  <PARENT_CMPD_ID>
2WF0

>  <STANDARD_TYPE>
IC50

>  <RELATION>
=

>  <STANDARD_VALUE>
0.20999999

>  <STANDARD_UNITS>
uM

>  <COMPOUND_KEY>
22

>  <PUBMED_ID>
19428244

>  <JOURNAL>
Bioorg.Med.Chem.Lett.

>  <YEAR>
2009

>  <VOLUME>
19

>  <FIRST_PAGE>
3664

>  <Company>
GSK

>  <Resolution>
1.6

>  <idx>
121

>  <Model>
Train

>  <target>
6.6777806

>  <des_pred_mlr>
7.3730502

>  <RF_Canvas>
7.1095796

>  <DNN_Canvas>
7.010509

>  <pred_CoMFA>
7.7463002

>  <pred_COMSIA>
7.4449

>  <pred_abm5>
7.253293

>  <pred_ff8>
7.5147991

>  <pred_gau6>
7.27913

>  <CID>
BACE_121

>  <active>
0

>  <des_class_bayes>
1

>  <maacs_class_bayes>
1

>  <radial_class_bayes>
0

>  <dend_class_bayes>
0

>  <molprint_class_bayes>
0

>  <RF_canvas>
0

>  <DNN_canvas>
1

$$$$
4FRJ_9156
  MOE2015           3D

 45 49  0  0  1  0  0  0  0  0999 V2000
   27.7560   12.5790   18.6330 F   0  0  0  0  0  0  0  0  0  0  0  0
   28.1360   11.7030   19.5810 C   0  0  0  0  0  0  0  0  0  0  0  0
   29.4740   11.6930   19.9560 C   0  0  0  0  0  0  0  0  0  0  0  0
   30.1760   12.3630   19.4820 H   0  0  0  0  0  0  0  0  0  0  0  0
   29.9060   10.8140   20.9470 C   0  0  0  0  0  0  0  0  0  0  0  0
   30.9430   10.8100   21.2470 H   0  0  0  0  0  0  0  0  0  0  0  0
   29.0100    9.9460   21.5480 C   0  0  0  0  0  0  0  0  0  0  0  0
   29.5690    8.8620   22.7900 Cl  0  0  0  0  0  0  0  0  0  0  0  0
   27.6720    9.9470   21.1660 C   0  0  0  0  0  0  0  0  0  0  0  0
   26.9800    9.2640   21.6350 H   0  0  0  0  0  0  0  0  0  0  0  0
   27.2180   10.8260   20.1790 C   0  0  0  0  0  0  0  0  0  0  0  0
   25.8600   10.8380   19.8270 C   0  0  0  0  0  0  0  0  0  0  0  0
   24.8990   10.8050   20.8340 C   0  0  0  0  0  0  0  0  0  0  0  0
   25.2160   10.7620   21.8660 H   0  0  0  0  0  0  0  0  0  0  0  0
   23.5420   10.8260   20.5400 C   0  0  0  0  0  0  0  0  0  0  0  0
   25.4430   10.9040   18.5030 C   0  0  0  0  0  0  0  0  0  0  0  0
   26.1760   10.9460   17.7110 H   0  0  0  0  0  0  0  0  0  0  0  0
   24.0960   10.9160   18.1940 C   0  0  0  0  0  0  0  0  0  0  0  0
   23.7850   10.9570   17.1610 H   0  0  0  0  0  0  0  0  0  0  0  0
   23.1430   10.8760   19.1950 C   0  0  0  0  0  0  0  0  0  0  0  0
   21.8610   10.9160   18.8000 O   0  0  0  0  0  0  0  0  0  0  0  0
   20.8720   10.8480   19.7270 C   0  0  0  0  0  0  0  0  0  0  0  0
   19.5540   10.8450   19.2650 C   0  0  0  0  0  0  0  0  0  0  0  0
   19.3650   10.8990   18.2030 H   0  0  0  0  0  0  0  0  0  0  0  0
   18.4720   10.7730   20.1520 C   0  0  0  0  0  0  0  0  0  0  0  0
   17.4600   10.7770   19.7740 H   0  0  0  0  0  0  0  0  0  0  0  0
   18.7060   10.6960   21.5310 C   0  0  0  0  0  0  0  0  0  0  0  0
   17.7000   10.6310   22.4820 O   0  0  0  0  0  0  0  0  0  0  0  0
   16.3490   10.7120   22.0170 C   0  0  0  0  0  0  0  0  0  0  0  0
   15.6680   10.6480   22.8660 H   0  0  0  0  0  0  0  0  0  0  0  0
   16.1510    9.8890   21.3300 H   0  0  0  0  0  0  0  0  0  0  0  0
   16.1990   11.6600   21.5010 H   0  0  0  0  0  0  0  0  0  0  0  0
   20.0220   10.7060   21.9780 C   0  0  0  0  0  0  0  0  0  0  0  0
   20.2110   10.6470   23.0400 H   0  0  0  0  0  0  0  0  0  0  0  0
   21.1100   10.7900   21.1060 C   0  0  0  0  0  0  0  0  0  0  0  0
   22.5170   10.7860   21.6850 C   0  0  3  0  0  0  0  0  0  0  0  0
   22.7210   11.9610   22.6620 C   0  0  0  0  0  0  0  0  0  0  0  0
   21.8330   12.5920   22.6860 H   0  0  0  0  0  0  0  0  0  0  0  0
   23.5820   12.5570   22.3620 H   0  0  0  0  0  0  0  0  0  0  0  0
   22.9560   11.3510   23.9970 O   0  0  0  0  0  0  0  0  0  0  0  0
   22.8480    9.9860   23.8420 C   0  0  0  0  0  0  0  0  0  0  0  0
   22.9690    9.1430   24.8690 N   0  0  0  0  0  0  0  0  0  0  0  0
   22.9060    8.1470   24.7150 H   0  0  0  0  0  0  0  0  0  0  0  0
   23.1240    9.5010   25.8010 H   0  0  0  0  0  0  0  0  0  0  0  0
   22.6420    9.6030   22.5750 N   0  0  0  0  0  0  0  0  0  0  0  0
  1  2  1  0  0  0  0
  2  3  1  0  0  0  0
  2 11  2  0  0  0  0
  3  4  1  0  0  0  0
  3  5  2  0  0  0  0
  5  6  1  0  0  0  0
  5  7  1  0  0  0  0
  7  8  1  0  0  0  0
  7  9  2  0  0  0  0
  9 10  1  0  0  0  0
  9 11  1  0  0  0  0
 11 12  1  0  0  0  0
 12 13  2  0  0  0  0
 12 16  1  0  0  0  0
 13 14  1  0  0  0  0
 13 15  1  0  0  0  0
 15 20  2  0  0  0  0
 15 36  1  0  0  0  0
 16 17  1  0  0  0  0
 16 18  2  0  0  0  0
 18 19  1  0  0  0  0
 18 20  1  0  0  0  0
 20 21  1  0  0  0  0
 21 22  1  0  0  0  0
 22 23  1  0  0  0  0
 22 35  2  0  0  0  0
 23 24  1  0  0  0  0
 23 25  2  0  0  0  0
 25 26  1  0  0  0  0
 25 27  1  0  0  0  0
 27 28  1  0  0  0  0
 27 33  2  0  0  0  0
 28 29  1  0  0  0  0
 29 30  1  0  0  0  0
 29 31  1  0  0  0  0
 29 32  1  0  0  0  0
 33 34  1  0  0  0  0
 33 35  1  0  0  0  0
 35 36  1  0  0  0  0
 36 37  1  0  0  0  0
 36 45  1  0  0  0  0
 37 38  1  0  0  0  0
 37 39  1  0  0  0  0
 37 40  1  0  0  0  0
 40 41  1  0  0  0  0
 41 42  1  0  0  0  0
 41 45  2  0  0  0  0
 42 43  1  0  0  0  0
 42 44  1  0  0  0  0
M  END
>  <PARENT_CMPD_ID>
4FRJ

>  <STANDARD_TYPE>
IC50

>  <RELATION>
=

>  <STANDARD_VALUE>
0.28

>  <STANDARD_UNITS>
uM

>  <COMPOUND_KEY>
9l

>  <PUBMED_ID>
22928914

>  <JOURNAL>
J.Med.Chem.

>  <YEAR>
2012

>  <VOLUME>
55

>  <FIRST_PAGE>
9156

>  <Company>
Amgen

>  <Resolution>
1.95

>  <idx>
122

>  <Model>
Train

>  <target>
6.5528421

>  <des_pred_mlr>
7.0099001

>  <RF_Canvas>
6.8316121

>  <DNN_Canvas>
6.6540875

>  <pred_CoMFA>
6.3817

>  <pred_COMSIA>
6.8825998

>  <pred_abm5>
6.6561832

>  <pred_ff8>
5.9001007

>  <pred_gau6>
6.8938541

>  <CID>
BACE_122

>  <active>
0

>  <des_class_bayes>
0

>  <maacs_class_bayes>
0

>  <radial_class_bayes>
0

>  <dend_class_bayes>
0

>  <molprint_class_bayes>
0

>  <RF_canvas>
0

>  <DNN_canvas>
0

$$$$
4I0G_2181
  MOE2015           3D

 43 45  0  0  1  0  0  0  0  0999 V2000
   21.8100   15.3450   17.3360 Cl  0  0  0  0  0  0  0  0  0  0  0  0
   22.8860   14.4310   18.4720 C   0  0  0  0  0  0  0  0  0  0  0  0
   24.1090   15.0270   18.8060 C   0  0  0  0  0  0  0  0  0  0  0  0
   25.0100   14.4260   19.6860 C   0  0  0  0  0  0  0  0  0  0  0  0
   22.5000   13.2050   19.0530 C   0  0  0  0  0  0  0  0  0  0  0  0
   23.3840   12.5760   19.9520 C   0  0  0  0  0  0  0  0  0  0  0  0
   24.6780   13.1990   20.2480 C   0  0  0  0  0  0  0  0  0  0  0  0
   23.1120   11.2340   20.5880 C   0  0  0  0  0  0  0  0  0  0  0  0
   24.4470   10.4680   20.7280 C   0  0  0  0  0  0  0  0  0  0  0  0
   24.0660    9.2530   21.5850 C   0  0  0  0  0  0  0  0  0  0  0  0
   25.1010   10.1670   19.3650 C   0  0  0  0  0  0  0  0  0  0  0  0
   25.4120   11.2710   21.4570 N   0  3  0  0  0  0  0  0  0  0  0  0
   25.5970   12.4950   21.2280 C   0  0  0  0  0  0  0  0  0  0  0  0
   26.4960   13.2410   21.8870 N   0  0  0  0  0  0  0  0  0  0  0  0
   27.5440   12.8420   22.8170 C   0  0  3  0  0  0  0  0  0  0  0  0
   27.5120   13.6850   24.0690 C   0  0  0  0  0  0  0  0  0  0  0  0
   26.6940   14.6060   24.1420 O   0  0  0  0  0  0  0  0  0  0  0  0
   28.3270   13.4550   24.9940 O   0  5  0  0  0  0  0  0  0  0  0  0
   28.9260   12.9680   22.1360 C   0  0  0  0  0  0  0  0  0  0  0  0
   28.8730   12.0530   20.9380 C   0  0  0  0  0  0  0  0  0  0  0  0
   28.9750   10.5360   20.9910 C   0  0  0  0  0  0  0  0  0  0  0  0
   29.2680    9.4320   22.6250 Br  0  0  0  0  0  0  0  0  0  0  0  0
   28.6640   12.5020   19.6170 C   0  0  0  0  0  0  0  0  0  0  0  0
   28.5370   13.5160   19.2670 H   0  0  0  0  0  0  0  0  0  0  0  0
   28.6600   11.0340   18.6870 S   0  0  0  0  0  0  0  0  0  0  0  0
   28.9050    9.7760   19.8300 C   0  0  0  0  0  0  0  0  0  0  0  0
   24.3620   15.9810   18.3690 H   0  0  0  0  0  0  0  0  0  0  0  0
   25.9480   14.9050   19.9260 H   0  0  0  0  0  0  0  0  0  0  0  0
   21.5470   12.7580   18.8140 H   0  0  0  0  0  0  0  0  0  0  0  0
   22.4270   10.6640   19.9610 H   0  0  0  0  0  0  0  0  0  0  0  0
   22.6680   11.3790   21.5730 H   0  0  0  0  0  0  0  0  0  0  0  0
   23.3410    8.6420   21.0470 H   0  0  0  0  0  0  0  0  0  0  0  0
   23.6290    9.5930   22.5240 H   0  0  0  0  0  0  0  0  0  0  0  0
   24.9570    8.6610   21.7930 H   0  0  0  0  0  0  0  0  0  0  0  0
   24.4230    9.5620   18.7630 H   0  0  0  0  0  0  0  0  0  0  0  0
   26.0320    9.6230   19.5210 H   0  0  0  0  0  0  0  0  0  0  0  0
   25.3100   11.1030   18.8470 H   0  0  0  0  0  0  0  0  0  0  0  0
   26.4370   14.2340   21.7110 H   0  0  0  0  0  0  0  0  0  0  0  0
   27.3700   11.8040   23.1010 H   0  0  0  0  0  0  0  0  0  0  0  0
   29.7160   12.6560   22.8190 H   0  0  0  0  0  0  0  0  0  0  0  0
   29.1030   13.9970   21.8220 H   0  0  0  0  0  0  0  0  0  0  0  0
   28.9820    8.7080   19.6880 H   0  0  0  0  0  0  0  0  0  0  0  0
   25.9600   10.8280   22.1810 H   0  0  0  0  0  0  0  0  0  0  0  0
  1  2  1  0  0  0  0
  2  3  2  0  0  0  0
  2  5  1  0  0  0  0
  3  4  1  0  0  0  0
  3 27  1  0  0  0  0
  4  7  2  0  0  0  0
  4 28  1  0  0  0  0
  5  6  2  0  0  0  0
  5 29  1  0  0  0  0
  6  7  1  0  0  0  0
  6  8  1  0  0  0  0
  7 13  1  0  0  0  0
  8  9  1  0  0  0  0
  8 30  1  0  0  0  0
  8 31  1  0  0  0  0
  9 10  1  0  0  0  0
  9 11  1  0  0  0  0
  9 12  1  0  0  0  0
 10 32  1  0  0  0  0
 10 33  1  0  0  0  0
 10 34  1  0  0  0  0
 11 35  1  0  0  0  0
 11 36  1  0  0  0  0
 11 37  1  0  0  0  0
 12 13  2  0  0  0  0
 12 43  1  0  0  0  0
 13 14  1  0  0  0  0
 14 15  1  0  0  0  0
 14 38  1  0  0  0  0
 15 16  1  0  0  0  0
 15 19  1  0  0  0  0
 15 39  1  0  0  0  0
 16 17  2  0  0  0  0
 16 18  1  0  0  0  0
 19 20  1  0  0  0  0
 19 40  1  0  0  0  0
 19 41  1  0  0  0  0
 20 21  1  0  0  0  0
 20 23  2  0  0  0  0
 21 22  1  0  0  0  0
 21 26  2  0  0  0  0
 23 24  1  0  0  0  0
 23 25  1  0  0  0  0
 25 26  1  0  0  0  0
 26 42  1  0  0  0  0
M  CHG  1  12   1
M  CHG  1  18  -1
M  END
>  <PARENT_CMPD_ID>
4I0G

>  <STANDARD_TYPE>
IC50

>  <RELATION>
=

>  <STANDARD_VALUE>
0.31

>  <STANDARD_UNITS>
uM

>  <COMPOUND_KEY>
3b

>  <PUBMED_ID>
23465612

>  <JOURNAL>
Bioorg.Med.Chem.Lett.

>  <YEAR>
2013

>  <VOLUME>
23

>  <FIRST_PAGE>
2181

>  <Company>
Elan

>  <Resolution>
1.78

>  <idx>
123

>  <Model>
Train

>  <target>
6.5086384

>  <des_pred_mlr>
6.54707

>  <RF_Canvas>
6.337945

>  <DNN_Canvas>
6.1203485

>  <pred_CoMFA>
5.9155998

>  <pred_COMSIA>
5.4658999

>  <pred_abm5>
6.295486

>  <pred_ff8>
5.3646955

>  <pred_gau6>
5.858604

>  <CID>
BACE_123

>  <active>
0

>  <des_class_bayes>
0

>  <maacs_class_bayes>
0

>  <radial_class_bayes>
0

>  <dend_class_bayes>
0

>  <molprint_class_bayes>
0

>  <RF_canvas>
0

>  <DNN_canvas>
0

$$$$
3U6A_7255
  MOE2015           3D

 45 47  0  0  1  0  0  0  0  0999 V2000
   31.1090   10.2860   22.3290 C   0  0  0  0  0  0  0  0  0  0  0  0
   32.0930   10.7250   22.2590 H   0  0  0  0  0  0  0  0  0  0  0  0
   30.1310   10.7580   21.5240 N   0  0  0  0  0  0  0  0  0  0  0  0
   28.0730   11.4340   19.7750 O   0  0  0  0  0  0  0  0  0  0  0  0
   32.1640    8.6750   24.2760 Cl  0  0  0  0  0  0  0  0  0  0  0  0
   21.7980   13.7230   24.3420 C   0  0  0  0  0  0  0  0  0  0  0  0
   22.3050   13.7780   25.3050 H   0  0  0  0  0  0  0  0  0  0  0  0
   20.7360   13.9290   24.4780 H   0  0  0  0  0  0  0  0  0  0  0  0
   22.2270   14.4600   23.6630 H   0  0  0  0  0  0  0  0  0  0  0  0
   21.9670   12.3800   23.7770 N   0  0  0  0  0  0  0  0  0  0  0  0
   20.7200   12.8680   21.9410 O   0  0  0  0  0  0  0  0  0  0  0  0
   22.7580   11.4420   24.5960 C   0  0  0  0  0  0  0  0  0  0  0  0
   22.4660   11.5600   25.6400 H   0  0  0  0  0  0  0  0  0  0  0  0
   23.8140   11.6880   24.4840 H   0  0  0  0  0  0  0  0  0  0  0  0
   22.8400    9.0240   25.0550 N   0  0  0  0  0  0  0  0  0  0  0  0
   22.6200    8.0690   24.8120 H   0  0  0  0  0  0  0  0  0  0  0  0
   23.2750    9.2320   25.9430 H   0  0  0  0  0  0  0  0  0  0  0  0
   22.5560   10.0120   24.2020 C   0  0  0  0  0  0  0  0  0  0  0  0
   21.9810    9.6870   23.0400 N   0  3  0  0  0  0  0  0  0  0  0  0
   21.7060   10.6540   21.9760 C   0  0  3  0  0  0  0  0  0  0  0  0
   26.5800   10.3430   21.1400 N   0  0  0  0  0  0  0  0  0  0  0  0
   26.5570    9.7420   21.9520 H   0  0  0  0  0  0  0  0  0  0  0  0
   20.5030   10.0990   21.1680 C   0  0  0  0  0  0  0  0  0  0  0  0
   19.6460    9.9780   21.8300 H   0  0  0  0  0  0  0  0  0  0  0  0
   20.7690    9.1340   20.7370 H   0  0  0  0  0  0  0  0  0  0  0  0
   20.2490   10.7960   20.3690 H   0  0  0  0  0  0  0  0  0  0  0  0
   21.4250   12.0590   22.5760 C   0  0  0  0  0  0  0  0  0  0  0  0
   22.9110   10.8220   21.0340 C   0  0  0  0  0  0  0  0  0  0  0  0
   22.7180   11.2810   19.7100 C   0  0  0  0  0  0  0  0  0  0  0  0
   21.7220   11.5140   19.3640 H   0  0  0  0  0  0  0  0  0  0  0  0
   23.8090   11.4360   18.8430 C   0  0  0  0  0  0  0  0  0  0  0  0
   23.6490   11.7930   17.8360 H   0  0  0  0  0  0  0  0  0  0  0  0
   25.1070   11.1290   19.2770 C   0  0  0  0  0  0  0  0  0  0  0  0
   25.9440   11.2470   18.6050 H   0  0  0  0  0  0  0  0  0  0  0  0
   25.3170   10.6650   20.5950 C   0  0  0  0  0  0  0  0  0  0  0  0
   24.2220   10.5120   21.4580 C   0  0  0  0  0  0  0  0  0  0  0  0
   24.3840   10.1510   22.4630 H   0  0  0  0  0  0  0  0  0  0  0  0
   27.8040   10.7150   20.7420 C   0  0  0  0  0  0  0  0  0  0  0  0
   28.8970   10.1860   21.6200 C   0  0  0  0  0  0  0  0  0  0  0  0
   28.6030    9.1620   22.5290 C   0  0  0  0  0  0  0  0  0  0  0  0
   27.6050    8.7540   22.5920 H   0  0  0  0  0  0  0  0  0  0  0  0
   29.6200    8.6780   23.3510 C   0  0  0  0  0  0  0  0  0  0  0  0
   29.4270    7.8780   24.0510 H   0  0  0  0  0  0  0  0  0  0  0  0
   30.8980    9.2480   23.2530 C   0  0  0  0  0  0  0  0  0  0  0  0
   21.7220    8.7230   22.8880 H   0  0  0  0  0  0  0  0  0  0  0  0
  1  2  1  0  0  0  0
  1  3  1  0  0  0  0
  1 44  2  0  0  0  0
  3 39  2  0  0  0  0
  4 38  2  0  0  0  0
  5 44  1  0  0  0  0
  6  7  1  0  0  0  0
  6  8  1  0  0  0  0
  6  9  1  0  0  0  0
  6 10  1  0  0  0  0
 10 12  1  0  0  0  0
 10 27  1  0  0  0  0
 11 27  2  0  0  0  0
 12 13  1  0  0  0  0
 12 14  1  0  0  0  0
 12 18  1  0  0  0  0
 15 16  1  0  0  0  0
 15 17  1  0  0  0  0
 15 18  1  0  0  0  0
 18 19  2  0  0  0  0
 19 20  1  0  0  0  0
 19 45  1  0  0  0  0
 20 23  1  0  0  0  0
 20 27  1  0  0  0  0
 20 28  1  0  0  0  0
 21 22  1  0  0  0  0
 21 35  1  0  0  0  0
 21 38  1  0  0  0  0
 23 24  1  0  0  0  0
 23 25  1  0  0  0  0
 23 26  1  0  0  0  0
 28 29  1  0  0  0  0
 28 36  2  0  0  0  0
 29 30  1  0  0  0  0
 29 31  2  0  0  0  0
 31 32  1  0  0  0  0
 31 33  1  0  0  0  0
 33 34  1  0  0  0  0
 33 35  2  0  0  0  0
 35 36  1  0  0  0  0
 36 37  1  0  0  0  0
 38 39  1  0  0  0  0
 39 40  1  0  0  0  0
 40 41  1  0  0  0  0
 40 42  2  0  0  0  0
 42 43  1  0  0  0  0
 42 44  1  0  0  0  0
M  CHG  1  19   1
M  END
>  <PARENT_CMPD_ID>
3U6A

>  <STANDARD_TYPE>
IC50

>  <RELATION>
=

>  <STANDARD_VALUE>
0.324

>  <STANDARD_UNITS>
uM

>  <COMPOUND_KEY>
(R)-18a

>  <PUBMED_ID>
22071305

>  <JOURNAL>
Bioorg.Med.Chem.Lett.

>  <YEAR>
2011

>  <VOLUME>
21

>  <FIRST_PAGE>
7255

>  <Company>
Janssen

>  <Resolution>
2.2

>  <idx>
124

>  <Model>
Train

>  <target>
6.4894552

>  <des_pred_mlr>
5.7722902

>  <RF_Canvas>
6.3706236

>  <DNN_Canvas>
6.5193057

>  <pred_CoMFA>
6.0921001

>  <pred_COMSIA>
6.2399001

>  <pred_abm5>
6.0896802

>  <pred_ff8>
6.4245582

>  <pred_gau6>
6.434556

>  <CID>
BACE_124

>  <active>
0

>  <des_class_bayes>
0

>  <maacs_class_bayes>
0

>  <radial_class_bayes>
0

>  <dend_class_bayes>
0

>  <molprint_class_bayes>
0

>  <RF_canvas>
0

>  <DNN_canvas>
0

$$$$
2VA6_5912
  MOE2015           3D

 45 47  0  0  1  0  0  0  0  0999 V2000
   30.7690    8.7090   23.1830 C   0  0  0  0  0  0  0  0  0  0  0  0
   29.5020    8.6350   22.5030 O   0  0  0  0  0  0  0  0  0  0  0  0
   29.1720    9.6580   21.6490 C   0  0  0  0  0  0  0  0  0  0  0  0
   30.0610   10.6470   21.2470 C   0  0  0  0  0  0  0  0  0  0  0  0
   29.6480   11.6510   20.4010 C   0  0  0  0  0  0  0  0  0  0  0  0
   28.3380   11.6950   19.9660 C   0  0  0  0  0  0  0  0  0  0  0  0
   27.4240   10.7180   20.3590 C   0  0  0  0  0  0  0  0  0  0  0  0
   27.8510    9.7110   21.2200 C   0  0  0  0  0  0  0  0  0  0  0  0
   26.0020   10.8080   19.9170 C   0  0  0  0  0  0  0  0  0  0  0  0
   25.7020   11.2930   18.6530 C   0  0  0  0  0  0  0  0  0  0  0  0
   24.3940   11.4300   18.2490 C   0  0  0  0  0  0  0  0  0  0  0  0
   23.3680   11.1190   19.1090 C   0  0  0  0  0  0  0  0  0  0  0  0
   23.6320   10.6430   20.3840 C   0  0  0  0  0  0  0  0  0  0  0  0
   22.4360   10.3250   21.2950 C   0  0  3  0  0  0  0  0  0  0  0  0
   21.4080    9.4790   20.5350 C   0  0  0  0  0  0  0  0  0  0  0  0
   21.7500   11.6310   21.7190 C   0  0  0  0  0  0  0  0  0  0  0  0
   22.4380   12.3080   22.8660 C   0  0  0  0  0  0  0  0  0  0  0  0
   22.6700   13.5040   22.8600 O   0  0  0  0  0  0  0  0  0  0  0  0
   22.8370   11.4950   23.8730 N   0  0  0  0  0  0  0  0  0  0  0  0
   23.3510   12.1230   25.1010 C   0  0  0  0  0  0  0  0  0  0  0  0
   22.8800   10.0790   23.6730 C   0  0  0  0  0  0  0  0  0  0  0  0
   22.9760    9.2600   24.7230 N   0  0  0  0  0  0  0  0  0  0  0  0
   22.8520    9.5300   22.4790 N   0  0  0  0  0  0  0  0  0  0  0  0
   24.9560   10.5040   20.7860 C   0  0  0  0  0  0  0  0  0  0  0  0
   30.8900    7.8340   23.8210 H   0  0  0  0  0  0  0  0  0  0  0  0
   30.8010    9.6110   23.7940 H   0  0  0  0  0  0  0  0  0  0  0  0
   31.5740    8.7380   22.4490 H   0  0  0  0  0  0  0  0  0  0  0  0
   31.0810   10.6280   21.6000 H   0  0  0  0  0  0  0  0  0  0  0  0
   30.3490   12.4060   20.0770 H   0  0  0  0  0  0  0  0  0  0  0  0
   28.0180   12.4950   19.3140 H   0  0  0  0  0  0  0  0  0  0  0  0
   27.1490    8.9630   21.5580 H   0  0  0  0  0  0  0  0  0  0  0  0
   26.5020   11.5650   17.9800 H   0  0  0  0  0  0  0  0  0  0  0  0
   24.1730   11.7830   17.2530 H   0  0  0  0  0  0  0  0  0  0  0  0
   22.3450   11.2470   18.7880 H   0  0  0  0  0  0  0  0  0  0  0  0
   21.0710   10.0230   19.6530 H   0  0  0  0  0  0  0  0  0  0  0  0
   20.5560    9.2740   21.1830 H   0  0  0  0  0  0  0  0  0  0  0  0
   21.8660    8.5390   20.2290 H   0  0  0  0  0  0  0  0  0  0  0  0
   20.7250   11.4050   22.0130 H   0  0  0  0  0  0  0  0  0  0  0  0
   21.7420   12.3120   20.8680 H   0  0  0  0  0  0  0  0  0  0  0  0
   23.2180   13.2030   25.0400 H   0  0  0  0  0  0  0  0  0  0  0  0
   24.4110   11.8930   25.2110 H   0  0  0  0  0  0  0  0  0  0  0  0
   22.8050   11.7380   25.9620 H   0  0  0  0  0  0  0  0  0  0  0  0
   23.0240    8.2610   24.5820 H   0  0  0  0  0  0  0  0  0  0  0  0
   23.0010    9.6390   25.6590 H   0  0  0  0  0  0  0  0  0  0  0  0
   25.1760   10.1560   21.7840 H   0  0  0  0  0  0  0  0  0  0  0  0
  1  2  1  0  0  0  0
  1 25  1  0  0  0  0
  1 26  1  0  0  0  0
  1 27  1  0  0  0  0
  2  3  1  0  0  0  0
  3  4  1  0  0  0  0
  3  8  2  0  0  0  0
  4  5  2  0  0  0  0
  4 28  1  0  0  0  0
  5  6  1  0  0  0  0
  5 29  1  0  0  0  0
  6  7  2  0  0  0  0
  6 30  1  0  0  0  0
  7  8  1  0  0  0  0
  7  9  1  0  0  0  0
  8 31  1  0  0  0  0
  9 10  1  0  0  0  0
  9 24  2  0  0  0  0
 10 11  2  0  0  0  0
 10 32  1  0  0  0  0
 11 12  1  0  0  0  0
 11 33  1  0  0  0  0
 12 13  2  0  0  0  0
 12 34  1  0  0  0  0
 13 14  1  0  0  0  0
 13 24  1  0  0  0  0
 14 15  1  0  0  0  0
 14 16  1  0  0  0  0
 14 23  1  0  0  0  0
 15 35  1  0  0  0  0
 15 36  1  0  0  0  0
 15 37  1  0  0  0  0
 16 17  1  0  0  0  0
 16 38  1  0  0  0  0
 16 39  1  0  0  0  0
 17 18  2  0  0  0  0
 17 19  1  0  0  0  0
 19 20  1  0  0  0  0
 19 21  1  0  0  0  0
 20 40  1  0  0  0  0
 20 41  1  0  0  0  0
 20 42  1  0  0  0  0
 21 22  1  0  0  0  0
 21 23  2  0  0  0  0
 22 43  1  0  0  0  0
 22 44  1  0  0  0  0
 24 45  1  0  0  0  0
M  END
>  <PARENT_CMPD_ID>
2VA6

>  <STANDARD_TYPE>
IC50

>  <RELATION>
=

>  <STANDARD_VALUE>
0.38

>  <STANDARD_UNITS>
uM

>  <COMPOUND_KEY>
24

>  <PUBMED_ID>
17985862

>  <JOURNAL>
J.Med.Chem.

>  <YEAR>
2007

>  <VOLUME>
50

>  <FIRST_PAGE>
5912

>  <Company>
AstraZeneca

>  <Resolution>
2.5

>  <idx>
125

>  <Model>
Train

>  <target>
6.4202166

>  <des_pred_mlr>
6.15485

>  <RF_Canvas>
6.1545024

>  <DNN_Canvas>
6.4524922

>  <pred_CoMFA>
6.5444002

>  <pred_COMSIA>
6.3218002

>  <pred_abm5>
6.1968093

>  <pred_ff8>
5.9281445

>  <pred_gau6>
6.401475

>  <CID>
BACE_125

>  <active>
0

>  <des_class_bayes>
0

>  <maacs_class_bayes>
0

>  <radial_class_bayes>
0

>  <dend_class_bayes>
0

>  <molprint_class_bayes>
0

>  <RF_canvas>
0

>  <DNN_canvas>
0

$$$$
4DPF_4377
  MOE2015           3D

 91 94  0  0  1  0  0  0  0  0999 V2000
   28.2070   16.7000   28.0540 O   0  0  0  0  0  0  0  0  0  0  0  0
   28.4690   16.1090   26.8170 S   0  0  0  0  0  0  0  0  0  0  0  0
   29.2530   14.9420   26.9480 O   0  0  0  0  0  0  0  0  0  0  0  0
   29.2050   17.3180   25.8430 C   0  0  0  0  0  0  0  0  0  0  0  0
   30.1900   17.5580   26.2440 H   0  0  0  0  0  0  0  0  0  0  0  0
   28.5840   18.2140   25.8440 H   0  0  0  0  0  0  0  0  0  0  0  0
   29.3090   16.9490   24.8230 H   0  0  0  0  0  0  0  0  0  0  0  0
   26.9760   15.7370   26.2180 N   0  0  0  0  0  0  0  0  0  0  0  0
   26.0290   16.8620   26.1030 C   0  0  0  0  0  0  0  0  0  0  0  0
   26.1690   17.5420   26.9430 H   0  0  0  0  0  0  0  0  0  0  0  0
   25.0080   16.4800   26.1120 H   0  0  0  0  0  0  0  0  0  0  0  0
   26.2100   17.3950   25.1690 H   0  0  0  0  0  0  0  0  0  0  0  0
   26.8610   14.7820   25.1440 C   0  0  0  0  0  0  0  0  0  0  0  0
   27.9460   14.3240   24.3940 C   0  0  0  0  0  0  0  0  0  0  0  0
   28.9390   14.7030   24.5880 H   0  0  0  0  0  0  0  0  0  0  0  0
   27.7450   13.3940   23.4140 C   0  0  0  0  0  0  0  0  0  0  0  0
   25.5630   14.3000   24.8930 C   0  0  0  0  0  0  0  0  0  0  0  0
   24.7190   14.6660   25.4600 H   0  0  0  0  0  0  0  0  0  0  0  0
   25.3900   13.3430   23.9000 C   0  0  0  0  0  0  0  0  0  0  0  0
   26.4750   12.9020   23.1580 C   0  0  0  0  0  0  0  0  0  0  0  0
   26.3300   12.1710   22.3760 H   0  0  0  0  0  0  0  0  0  0  0  0
   24.0340   12.7810   23.6120 C   0  0  0  0  0  0  0  0  0  0  0  0
   23.0250   13.4670   23.6450 O   0  0  0  0  0  0  0  0  0  0  0  0
   24.0740   11.4870   23.3500 N   0  0  0  0  0  0  0  0  0  0  0  0
   24.9700   11.0310   23.4480 H   0  0  0  0  0  0  0  0  0  0  0  0
   22.9380   10.6370   22.9270 C   0  0  3  0  0  0  0  0  0  0  0  0
   22.1140   11.2380   22.5430 H   0  0  0  0  0  0  0  0  0  0  0  0
   22.4030    9.8350   24.1370 C   0  0  3  0  0  0  0  0  0  0  0  0
   23.2320    9.2650   24.5570 H   0  0  0  0  0  0  0  0  0  0  0  0
   21.8380   10.7650   25.2040 C   0  0  0  0  0  0  0  0  0  0  0  0
   21.1380   11.4530   24.7300 H   0  0  0  0  0  0  0  0  0  0  0  0
   22.6600   11.3290   25.6440 H   0  0  0  0  0  0  0  0  0  0  0  0
   21.1450   10.0540   26.2620 N   0  3  0  0  0  0  0  0  0  0  0  0
   21.8490    9.6600   26.8700 H   0  0  0  0  0  0  0  0  0  0  0  0
   20.6190    9.3090   25.8280 H   0  0  0  0  0  0  0  0  0  0  0  0
   20.2200   10.8060   27.1000 C   0  0  0  0  0  0  0  0  0  0  0  0
   20.7620   11.6290   27.5660 H   0  0  0  0  0  0  0  0  0  0  0  0
   19.8320   10.1430   27.8730 H   0  0  0  0  0  0  0  0  0  0  0  0
   19.0520   11.3760   26.3200 C   0  0  0  0  0  0  0  0  0  0  0  0
   18.2030   10.5220   25.6530 C   0  0  0  0  0  0  0  0  0  0  0  0
   18.3820    9.4580   25.7020 H   0  0  0  0  0  0  0  0  0  0  0  0
   17.1290   10.9900   24.9230 C   0  0  0  0  0  0  0  0  0  0  0  0
   16.3020    9.9830   24.2010 C   0  0  0  0  0  0  0  0  0  0  0  0
   16.9790    9.2890   23.7030 H   0  0  0  0  0  0  0  0  0  0  0  0
   15.4630    9.1850   25.1590 C   0  0  0  0  0  0  0  0  0  0  0  0
   14.7710    9.8500   25.6770 H   0  0  0  0  0  0  0  0  0  0  0  0
   16.1100    8.6950   25.8870 H   0  0  0  0  0  0  0  0  0  0  0  0
   14.9000    8.4320   24.6080 H   0  0  0  0  0  0  0  0  0  0  0  0
   15.4560   10.6350   23.1240 C   0  0  0  0  0  0  0  0  0  0  0  0
   14.7630   11.3390   23.5830 H   0  0  0  0  0  0  0  0  0  0  0  0
   14.8950    9.8690   22.5890 H   0  0  0  0  0  0  0  0  0  0  0  0
   16.1030   11.1650   22.4250 H   0  0  0  0  0  0  0  0  0  0  0  0
   16.9060   12.3660   24.8460 C   0  0  0  0  0  0  0  0  0  0  0  0
   16.0780   12.7570   24.2730 H   0  0  0  0  0  0  0  0  0  0  0  0
   17.7710   13.2290   25.5230 C   0  0  0  0  0  0  0  0  0  0  0  0
   17.6030   14.2940   25.4560 H   0  0  0  0  0  0  0  0  0  0  0  0
   18.8390   12.7670   26.2790 C   0  0  0  0  0  0  0  0  0  0  0  0
   19.4820   13.4490   26.8160 H   0  0  0  0  0  0  0  0  0  0  0  0
   21.3370    8.9580   23.6980 O   0  0  0  0  0  0  0  0  0  0  0  0
   20.6370    9.5090   23.3390 H   0  0  0  0  0  0  0  0  0  0  0  0
   23.4700    9.6860   21.8220 C   0  0  0  0  0  0  0  0  0  0  0  0
   22.6240    9.2840   21.2650 H   0  0  0  0  0  0  0  0  0  0  0  0
   24.0170    8.8690   22.2920 H   0  0  0  0  0  0  0  0  0  0  0  0
   24.3620   10.3810   20.8940 O   0  0  0  0  0  0  0  0  0  0  0  0
   25.4020    9.5570   20.2940 C   0  0  0  0  0  0  0  0  0  0  0  0
   24.9640    8.9970   19.4680 H   0  0  0  0  0  0  0  0  0  0  0  0
   25.7700    8.8630   21.0490 H   0  0  0  0  0  0  0  0  0  0  0  0
   26.5920   10.3630   19.7560 C   0  0  0  0  0  0  0  0  0  0  0  0
   26.3790   11.0830   18.9800 H   0  0  0  0  0  0  0  0  0  0  0  0
   27.8480   10.2650   20.1450 C   0  0  0  0  0  0  0  0  0  0  0  0
   28.1530    9.5710   20.9140 H   0  0  0  0  0  0  0  0  0  0  0  0
   28.8440   11.1830   19.4520 C   0  0  0  0  0  0  0  0  0  0  0  0
   28.3040   11.9210   18.8590 H   0  0  0  0  0  0  0  0  0  0  0  0
   29.4880   10.5930   18.8000 H   0  0  0  0  0  0  0  0  0  0  0  0
   29.7060   11.9040   20.5060 C   0  0  3  0  0  0  0  0  0  0  0  0
   30.3270   11.2230   21.0880 H   0  0  0  0  0  0  0  0  0  0  0  0
   28.7300   12.5830   21.3630 N   0  0  0  0  0  0  0  0  0  0  0  0
   27.8730   12.9020   20.9340 H   0  0  0  0  0  0  0  0  0  0  0  0
   28.8870   12.8070   22.6470 C   0  0  0  0  0  0  0  0  0  0  0  0
   29.8820   12.4470   23.2910 O   0  0  0  0  0  0  0  0  0  0  0  0
   30.7040   12.8080   19.8860 C   0  0  0  0  0  0  0  0  0  0  0  0
   30.3590   13.9740   19.2010 C   0  0  0  0  0  0  0  0  0  0  0  0
   29.3250   14.2620   19.0810 H   0  0  0  0  0  0  0  0  0  0  0  0
   31.3770   14.7500   18.6800 C   0  0  0  0  0  0  0  0  0  0  0  0
   31.1350   15.6580   18.1470 H   0  0  0  0  0  0  0  0  0  0  0  0
   32.7270   14.3730   18.8340 C   0  0  0  0  0  0  0  0  0  0  0  0
   33.5030   15.0050   18.4280 H   0  0  0  0  0  0  0  0  0  0  0  0
   33.0790   13.2030   19.4990 C   0  0  0  0  0  0  0  0  0  0  0  0
   34.1120   12.9060   19.6000 H   0  0  0  0  0  0  0  0  0  0  0  0
   32.0530   12.4300   20.0280 C   0  0  0  0  0  0  0  0  0  0  0  0
   32.2950   11.5210   20.5590 H   0  0  0  0  0  0  0  0  0  0  0  0
  1  2  2  0  0  0  0
  2  3  2  0  0  0  0
  2  4  1  0  0  0  0
  2  8  1  0  0  0  0
  4  5  1  0  0  0  0
  4  6  1  0  0  0  0
  4  7  1  0  0  0  0
  8  9  1  0  0  0  0
  8 13  1  0  0  0  0
  9 10  1  0  0  0  0
  9 11  1  0  0  0  0
  9 12  1  0  0  0  0
 13 14  2  0  0  0  0
 13 17  1  0  0  0  0
 14 15  1  0  0  0  0
 14 16  1  0  0  0  0
 16 20  2  0  0  0  0
 16 79  1  0  0  0  0
 17 18  1  0  0  0  0
 17 19  2  0  0  0  0
 19 20  1  0  0  0  0
 19 22  1  0  0  0  0
 20 21  1  0  0  0  0
 22 23  2  0  0  0  0
 22 24  1  0  0  0  0
 24 25  1  0  0  0  0
 24 26  1  0  0  0  0
 26 27  1  0  0  0  0
 26 28  1  0  0  0  0
 26 61  1  0  0  0  0
 28 29  1  0  0  0  0
 28 30  1  0  0  0  0
 28 59  1  0  0  0  0
 30 31  1  0  0  0  0
 30 32  1  0  0  0  0
 30 33  1  0  0  0  0
 33 34  1  0  0  0  0
 33 35  1  0  0  0  0
 33 36  1  0  0  0  0
 36 37  1  0  0  0  0
 36 38  1  0  0  0  0
 36 39  1  0  0  0  0
 39 40  1  0  0  0  0
 39 57  2  0  0  0  0
 40 41  1  0  0  0  0
 40 42  2  0  0  0  0
 42 43  1  0  0  0  0
 42 53  1  0  0  0  0
 43 44  1  0  0  0  0
 43 45  1  0  0  0  0
 43 49  1  0  0  0  0
 45 46  1  0  0  0  0
 45 47  1  0  0  0  0
 45 48  1  0  0  0  0
 49 50  1  0  0  0  0
 49 51  1  0  0  0  0
 49 52  1  0  0  0  0
 53 54  1  0  0  0  0
 53 55  2  0  0  0  0
 55 56  1  0  0  0  0
 55 57  1  0  0  0  0
 57 58  1  0  0  0  0
 59 60  1  0  0  0  0
 61 62  1  0  0  0  0
 61 63  1  0  0  0  0
 61 64  1  0  0  0  0
 64 65  1  0  0  0  0
 65 66  1  0  0  0  0
 65 67  1  0  0  0  0
 65 68  1  0  0  0  0
 68 69  1  0  0  0  0
 68 70  2  0  0  0  0
 70 71  1  0  0  0  0
 70 72  1  0  0  0  0
 72 73  1  0  0  0  0
 72 74  1  0  0  0  0
 72 75  1  0  0  0  0
 75 76  1  0  0  0  0
 75 77  1  0  0  0  0
 75 81  1  0  0  0  0
 77 78  1  0  0  0  0
 77 79  1  0  0  0  0
 79 80  2  0  0  0  0
 81 82  1  0  0  0  0
 81 90  2  0  0  0  0
 82 83  1  0  0  0  0
 82 84  2  0  0  0  0
 84 85  1  0  0  0  0
 84 86  1  0  0  0  0
 86 87  1  0  0  0  0
 86 88  2  0  0  0  0
 88 89  1  0  0  0  0
 88 90  1  0  0  0  0
 90 91  1  0  0  0  0
M  CHG  1  33   1
M  END
>  <PARENT_CMPD_ID>
4DPF

>  <STANDARD_TYPE>
IC50

>  <RELATION>
=

>  <STANDARD_VALUE>
0.40000001

>  <STANDARD_UNITS>
uM

>  <COMPOUND_KEY>
28

>  <PUBMED_ID>
22698785

>  <JOURNAL>
Bioorg.Med.Chem.

>  <YEAR>
2012

>  <VOLUME>
20

>  <FIRST_PAGE>
4377

>  <Company>
Medivir

>  <Resolution>
1.8

>  <idx>
126

>  <Model>
Train

>  <target>
6.3979402

>  <des_pred_mlr>
7.3730102

>  <RF_Canvas>
6.8500342

>  <DNN_Canvas>
6.5511093

>  <pred_CoMFA>
6.4136

>  <pred_COMSIA>
7.0303001

>  <pred_abm5>
6.2231622

>  <pred_ff8>
7.9257545

>  <pred_gau6>
6.679986

>  <CID>
BACE_126

>  <active>
0

>  <des_class_bayes>
1

>  <maacs_class_bayes>
1

>  <radial_class_bayes>
0

>  <dend_class_bayes>
1

>  <molprint_class_bayes>
0

>  <RF_canvas>
0

>  <DNN_canvas>
1

$$$$
3L3A_2068
  MOE2015           3D

 55 58  0  0  0  0  0  0  0  0999 V2000
   29.7410    9.7160   22.9560 C   0  0  0  0  0  0  0  0  0  0  0  0
   29.6860    8.7060   23.5350 N   0  0  0  0  0  0  0  0  0  0  0  0
   27.0920   10.6780   19.8970 O   0  0  0  0  0  0  0  0  0  0  0  0
   18.3630    8.4150   19.0650 Cl  0  0  0  0  0  0  0  0  0  0  0  0
   15.9540   11.3530   21.5140 C   0  0  0  0  0  0  0  0  0  0  0  0
   21.7880    9.4370   23.1510 N   0  0  0  0  0  0  0  0  0  0  0  0
   15.4790   10.0670   21.2570 C   0  0  0  0  0  0  0  0  0  0  0  0
   20.5000   10.8640   20.0940 N   0  0  0  0  0  0  0  0  0  0  0  0
   21.4830   12.1290   23.7840 C   0  0  0  0  0  0  0  0  0  0  0  0
   22.8380    9.0350   25.2030 N   0  0  0  0  0  0  0  0  0  0  0  0
   17.1900   11.7630   21.0170 C   0  0  0  0  0  0  0  0  0  0  0  0
   23.5700   11.0140   20.7630 C   0  0  0  0  0  0  0  0  0  0  0  0
   23.7650   11.4670   18.4090 C   0  0  0  0  0  0  0  0  0  0  0  0
   24.9470   10.7980   20.8450 C   0  0  0  0  0  0  0  0  0  0  0  0
   25.1460   11.2510   18.4890 C   0  0  0  0  0  0  0  0  0  0  0  0
   16.2400    9.1770   20.5020 C   0  0  0  0  0  0  0  0  0  0  0  0
   20.8680   12.5710   18.7180 C   0  0  0  0  0  0  0  0  0  0  0  0
   19.4740   12.4510   18.9130 C   0  0  0  0  0  0  0  0  0  0  0  0
   21.0200   11.6430   22.5700 C   0  0  0  0  0  0  0  0  0  0  0  0
   22.0990   11.2620   24.6810 C   0  0  0  0  0  0  0  0  0  0  0  0
   22.9560   11.3520   19.5500 C   0  0  0  0  0  0  0  0  0  0  0  0
   17.9730   10.8810   20.2550 C   0  0  0  0  0  0  0  0  0  0  0  0
   25.7500   10.9120   19.7050 C   0  0  0  0  0  0  0  0  0  0  0  0
   17.4840    9.5800   19.9990 C   0  0  0  0  0  0  0  0  0  0  0  0
   21.5090   11.5890   19.4570 C   0  0  0  0  0  0  0  0  0  0  0  0
   19.2590   11.3850   19.7640 C   0  0  0  0  0  0  0  0  0  0  0  0
   21.1880   10.2920   22.2950 C   0  0  0  0  0  0  0  0  0  0  0  0
   22.2370    9.9230   24.3270 C   0  0  0  0  0  0  0  0  0  0  0  0
   29.8380   11.0100   22.2570 C   0  0  0  0  0  0  0  0  0  0  0  0
   20.7000    9.7350   20.9910 C   0  0  0  0  0  0  0  0  0  0  0  0
   29.2500   10.9780   20.8480 C   0  0  0  0  0  0  0  0  0  0  0  0
   27.8200   11.5100   20.8070 C   0  0  0  0  0  0  0  0  0  0  0  0
   15.3600   12.0360   22.1030 H   0  0  0  0  0  0  0  0  0  0  0  0
   14.5190    9.7600   21.6440 H   0  0  0  0  0  0  0  0  0  0  0  0
   21.3660   13.1740   24.0310 H   0  0  0  0  0  0  0  0  0  0  0  0
   23.1760    9.3590   26.0980 H   0  0  0  0  0  0  0  0  0  0  0  0
   22.9390    8.0630   24.9470 H   0  0  0  0  0  0  0  0  0  0  0  0
   17.5470   12.7620   21.2190 H   0  0  0  0  0  0  0  0  0  0  0  0
   22.9660   10.9190   21.6530 H   0  0  0  0  0  0  0  0  0  0  0  0
   23.3180   11.7250   17.4600 H   0  0  0  0  0  0  0  0  0  0  0  0
   25.3950   10.5410   21.7940 H   0  0  0  0  0  0  0  0  0  0  0  0
   25.7530   11.3470   17.6010 H   0  0  0  0  0  0  0  0  0  0  0  0
   15.8730    8.1810   20.3050 H   0  0  0  0  0  0  0  0  0  0  0  0
   21.3540   13.3070   18.0950 H   0  0  0  0  0  0  0  0  0  0  0  0
   18.7130   13.0800   18.4750 H   0  0  0  0  0  0  0  0  0  0  0  0
   20.5410   12.2980   21.8570 H   0  0  0  0  0  0  0  0  0  0  0  0
   22.4630   11.6210   25.6330 H   0  0  0  0  0  0  0  0  0  0  0  0
   30.8900   11.2880   22.1870 H   0  0  0  0  0  0  0  0  0  0  0  0
   29.3020   11.7590   22.8390 H   0  0  0  0  0  0  0  0  0  0  0  0
   21.4410    9.0530   20.5750 H   0  0  0  0  0  0  0  0  0  0  0  0
   19.7600    9.2040   21.1390 H   0  0  0  0  0  0  0  0  0  0  0  0
   29.2520    9.9480   20.4900 H   0  0  0  0  0  0  0  0  0  0  0  0
   29.8710   11.5910   20.1950 H   0  0  0  0  0  0  0  0  0  0  0  0
   27.3730   11.4600   21.8000 H   0  0  0  0  0  0  0  0  0  0  0  0
   27.8140   12.5420   20.4570 H   0  0  0  0  0  0  0  0  0  0  0  0
  1  2  3  0  0  0  0
  1 29  1  0  0  0  0
  3 23  1  0  0  0  0
  3 32  1  0  0  0  0
  4 24  1  0  0  0  0
  5  7  2  0  0  0  0
  5 11  1  0  0  0  0
  5 33  1  0  0  0  0
  6 27  2  0  0  0  0
  6 28  1  0  0  0  0
  7 16  1  0  0  0  0
  7 34  1  0  0  0  0
  8 25  1  0  0  0  0
  8 26  1  0  0  0  0
  8 30  1  0  0  0  0
  9 19  2  0  0  0  0
  9 20  1  0  0  0  0
  9 35  1  0  0  0  0
 10 28  1  0  0  0  0
 10 36  1  0  0  0  0
 10 37  1  0  0  0  0
 11 22  2  0  0  0  0
 11 38  1  0  0  0  0
 12 14  1  0  0  0  0
 12 21  2  0  0  0  0
 12 39  1  0  0  0  0
 13 15  2  0  0  0  0
 13 21  1  0  0  0  0
 13 40  1  0  0  0  0
 14 23  2  0  0  0  0
 14 41  1  0  0  0  0
 15 23  1  0  0  0  0
 15 42  1  0  0  0  0
 16 24  2  0  0  0  0
 16 43  1  0  0  0  0
 17 18  1  0  0  0  0
 17 25  2  0  0  0  0
 17 44  1  0  0  0  0
 18 26  2  0  0  0  0
 18 45  1  0  0  0  0
 19 27  1  0  0  0  0
 19 46  1  0  0  0  0
 20 28  2  0  0  0  0
 20 47  1  0  0  0  0
 21 25  1  0  0  0  0
 22 24  1  0  0  0  0
 22 26  1  0  0  0  0
 27 30  1  0  0  0  0
 29 31  1  0  0  0  0
 29 48  1  0  0  0  0
 29 49  1  0  0  0  0
 30 50  1  0  0  0  0
 30 51  1  0  0  0  0
 31 32  1  0  0  0  0
 31 52  1  0  0  0  0
 31 53  1  0  0  0  0
 32 54  1  0  0  0  0
 32 55  1  0  0  0  0
M  END
>  <PARENT_CMPD_ID>
3L3A

>  <STANDARD_TYPE>
IC50

>  <RELATION>
=

>  <STANDARD_VALUE>
0.41999999

>  <STANDARD_UNITS>
uM

>  <COMPOUND_KEY>
32

>  <PUBMED_ID>
20223661

>  <JOURNAL>
Bioorg.Med.Chem.Lett.

>  <YEAR>
2010

>  <VOLUME>
20

>  <FIRST_PAGE>
2068

>  <Company>
Wyeth

>  <Resolution>
2.3599999

>  <idx>
127

>  <Model>
Train

>  <target>
6.3767509

>  <des_pred_mlr>
6.8733101

>  <RF_Canvas>
6.3938971

>  <DNN_Canvas>
6.0964475

>  <pred_CoMFA>
6.8751001

>  <pred_COMSIA>
6.9412999

>  <pred_abm5>
6.8485746

>  <pred_ff8>
5.8908448

>  <pred_gau6>
6.424931

>  <CID>
BACE_127

>  <active>
0

>  <des_class_bayes>
0

>  <maacs_class_bayes>
0

>  <radial_class_bayes>
0

>  <dend_class_bayes>
0

>  <molprint_class_bayes>
0

>  <RF_canvas>
0

>  <DNN_canvas>
0

$$$$
4J0Y_3980
  MOE2015           3D

 42 44  0  0  1  0  0  0  0  0999 V2000
   22.4660    9.9950   24.1140 C   0  0  0  0  0  0  0  0  0  0  0  0
   23.9470   11.3330   18.6280 C   0  0  0  0  0  0  0  0  0  0  0  0
   25.2460   10.9570   19.0790 C   0  0  0  0  0  0  0  0  0  0  0  0
   25.3790   10.4450   20.3910 C   0  0  0  0  0  0  0  0  0  0  0  0
   22.8220   11.1960   19.4830 C   0  0  0  0  0  0  0  0  0  0  0  0
   22.9870   10.6260   20.7870 C   0  0  0  0  0  0  0  0  0  0  0  0
   24.2650   10.3220   21.2230 C   0  0  0  0  0  0  0  0  0  0  0  0
   21.5190   11.9780   22.4140 C   0  0  3  0  0  0  0  0  0  0  0  0
   20.5710    9.9530   21.1250 C   0  0  0  0  0  0  0  0  0  0  0  0
   21.8090   10.5170   21.7940 C   0  0  3  0  0  0  0  0  0  0  0  0
   22.4880   12.2690   23.5520 C   0  0  0  0  0  0  0  0  0  0  0  0
   21.5640   11.5680   19.0460 F   0  0  0  0  0  0  0  0  0  0  0  0
   22.3330   11.2420   24.5390 O   0  0  0  0  0  0  0  0  0  0  0  0
   22.1820    9.6050   22.8800 N   0  0  0  0  0  0  0  0  0  0  0  0
   21.7550   12.8690   21.5060 F   0  0  0  0  0  0  0  0  0  0  0  0
   22.9110    9.0390   25.0350 N   0  0  0  0  0  0  0  0  0  0  0  0
   26.6230   10.0910   20.9390 N   0  0  0  0  0  0  0  0  0  0  0  0
   27.8450   10.4720   20.5070 C   0  0  0  0  0  0  0  0  0  0  0  0
   28.9810   10.0370   21.3050 C   0  0  0  0  0  0  0  0  0  0  0  0
   28.0230   11.0640   19.4550 O   0  0  0  0  0  0  0  0  0  0  0  0
   28.7710    9.0920   22.2230 N   0  0  0  0  0  0  0  0  0  0  0  0
   29.7250    8.7150   23.0590 C   0  0  0  0  0  0  0  0  0  0  0  0
   31.0050    9.2720   22.9670 C   0  0  0  0  0  0  0  0  0  0  0  0
   31.2660   10.2760   21.9740 C   0  0  0  0  0  0  0  0  0  0  0  0
   30.2100   10.6640   21.1650 C   0  0  0  0  0  0  0  0  0  0  0  0
   32.0570    8.8290   23.8250 C   0  0  0  0  0  0  0  0  0  0  0  0
   32.8830    8.4890   24.5040 N   0  0  0  0  0  0  0  0  0  0  0  0
   23.8180   11.7240   17.6300 H   0  0  0  0  0  0  0  0  0  0  0  0
   26.1070   11.0600   18.4350 H   0  0  0  0  0  0  0  0  0  0  0  0
   24.4040    9.9790   22.2380 H   0  0  0  0  0  0  0  0  0  0  0  0
   20.4870   12.0050   22.7640 H   0  0  0  0  0  0  0  0  0  0  0  0
   20.2670   10.6100   20.3100 H   0  0  0  0  0  0  0  0  0  0  0  0
   19.7640    9.8820   21.8550 H   0  0  0  0  0  0  0  0  0  0  0  0
   20.7920    8.9620   20.7290 H   0  0  0  0  0  0  0  0  0  0  0  0
   22.2620   13.2410   23.9910 H   0  0  0  0  0  0  0  0  0  0  0  0
   23.5110   12.2690   23.1760 H   0  0  0  0  0  0  0  0  0  0  0  0
   23.0100    8.0740   24.7530 H   0  0  0  0  0  0  0  0  0  0  0  0
   23.1330    9.3140   25.9810 H   0  0  0  0  0  0  0  0  0  0  0  0
   26.6010    9.4840   21.7460 H   0  0  0  0  0  0  0  0  0  0  0  0
   29.5140    7.9740   23.8160 H   0  0  0  0  0  0  0  0  0  0  0  0
   32.2480   10.7120   21.8620 H   0  0  0  0  0  0  0  0  0  0  0  0
   30.3430   11.4470   20.4330 H   0  0  0  0  0  0  0  0  0  0  0  0
  1 13  1  0  0  0  0
  1 14  2  0  0  0  0
  1 16  1  0  0  0  0
  2  3  2  0  0  0  0
  2  5  1  0  0  0  0
  2 28  1  0  0  0  0
  3  4  1  0  0  0  0
  3 29  1  0  0  0  0
  4  7  2  0  0  0  0
  4 17  1  0  0  0  0
  5  6  2  0  0  0  0
  5 12  1  0  0  0  0
  6  7  1  0  0  0  0
  6 10  1  0  0  0  0
  7 30  1  0  0  0  0
  8 10  1  0  0  0  0
  8 11  1  0  0  0  0
  8 15  1  0  0  0  0
  8 31  1  0  0  0  0
  9 10  1  0  0  0  0
  9 32  1  0  0  0  0
  9 33  1  0  0  0  0
  9 34  1  0  0  0  0
 10 14  1  0  0  0  0
 11 13  1  0  0  0  0
 11 35  1  0  0  0  0
 11 36  1  0  0  0  0
 16 37  1  0  0  0  0
 16 38  1  0  0  0  0
 17 18  1  0  0  0  0
 17 39  1  0  0  0  0
 18 19  1  0  0  0  0
 18 20  2  0  0  0  0
 19 21  1  0  0  0  0
 19 25  2  0  0  0  0
 21 22  2  0  0  0  0
 22 23  1  0  0  0  0
 22 40  1  0  0  0  0
 23 24  2  0  0  0  0
 23 26  1  0  0  0  0
 24 25  1  0  0  0  0
 24 41  1  0  0  0  0
 25 42  1  0  0  0  0
 26 27  3  0  0  0  0
M  END
>  <PARENT_CMPD_ID>
4J0Y

>  <STANDARD_TYPE>
IC50

>  <RELATION>
=

>  <STANDARD_VALUE>
0.435

>  <STANDARD_UNITS>
uM

>  <COMPOUND_KEY>
67

>  <PUBMED_ID>
23590342

>  <JOURNAL>
J.Med.Chem.

>  <YEAR>
2013

>  <VOLUME>
56

>  <FIRST_PAGE>
3980

>  <Company>
Roche

>  <Resolution>
1.77

>  <idx>
128

>  <Model>
Train

>  <target>
6.3615108

>  <des_pred_mlr>
6.2408299

>  <RF_Canvas>
6.7214489

>  <DNN_Canvas>
6.8818049

>  <pred_CoMFA>
6.9832001

>  <pred_COMSIA>
6.5608001

>  <pred_abm5>
6.8802342

>  <pred_ff8>
7.6715212

>  <pred_gau6>
7.1621847

>  <CID>
BACE_128

>  <active>
0

>  <des_class_bayes>
1

>  <maacs_class_bayes>
1

>  <radial_class_bayes>
0

>  <dend_class_bayes>
1

>  <molprint_class_bayes>
1

>  <RF_canvas>
0

>  <DNN_canvas>
1

$$$$
4I0F_3075
  MOE2015           3D

 50 53  0  0  1  0  0  0  0  0999 V2000
   21.6790   15.1310   17.3380 Cl  0  0  0  0  0  0  0  0  0  0  0  0
   22.7840   14.4030   18.5380 C   0  0  0  0  0  0  0  0  0  0  0  0
   23.9900   15.0460   18.8160 C   0  0  0  0  0  0  0  0  0  0  0  0
   24.9100   14.5320   19.7140 C   0  0  0  0  0  0  0  0  0  0  0  0
   22.3840   13.2210   19.1190 C   0  0  0  0  0  0  0  0  0  0  0  0
   23.2850   12.6550   20.0310 C   0  0  0  0  0  0  0  0  0  0  0  0
   24.5420   13.3250   20.3160 C   0  0  0  0  0  0  0  0  0  0  0  0
   23.0130   11.3420   20.7360 C   0  0  0  0  0  0  0  0  0  0  0  0
   24.3270   10.5840   20.8170 C   0  0  0  0  0  0  0  0  0  0  0  0
   24.0520    9.2950   21.5620 C   0  0  0  0  0  0  0  0  0  0  0  0
   24.8180   10.1740   19.4090 C   0  0  0  0  0  0  0  0  0  0  0  0
   25.3130   11.4140   21.5200 N   0  3  0  0  0  0  0  0  0  0  0  0
   25.4340   12.6650   21.3280 C   0  0  0  0  0  0  0  0  0  0  0  0
   26.2590   13.4760   21.9920 N   0  0  0  0  0  0  0  0  0  0  0  0
   27.3690   12.9790   22.8370 C   0  0  3  0  0  0  0  0  0  0  0  0
   27.3530   13.8230   24.0730 C   0  0  0  0  0  0  0  0  0  0  0  0
   28.1210   13.5370   25.0150 O   0  0  0  0  0  0  0  0  0  0  0  0
   26.6710   14.8470   24.1700 O   0  5  0  0  0  0  0  0  0  0  0  0
   28.7490   13.0510   22.1470 C   0  0  0  0  0  0  0  0  0  0  0  0
   28.8140   11.7800   21.2980 C   0  0  0  0  0  0  0  0  0  0  0  0
   29.0990   10.5160   21.8360 C   0  0  0  0  0  0  0  0  0  0  0  0
   28.9930    9.3350   20.5580 S   0  0  0  0  0  0  0  0  0  0  0  0
   28.6280   10.3680   19.2180 C   0  0  0  0  0  0  0  0  0  0  0  0
   28.5760   11.6470   19.8040 C   0  0  0  0  0  0  0  0  0  0  0  0
   28.1520   12.8110   18.9550 C   0  0  0  0  0  0  0  0  0  0  0  0
   27.2180   12.6610   17.8860 C   0  0  0  0  0  0  0  0  0  0  0  0
   27.0010   13.9090   17.3930 N   0  0  0  0  0  0  0  0  0  0  0  0
   27.7990   14.8030   18.1670 N   0  0  0  0  0  0  0  0  0  0  0  0
   28.5000   14.1250   19.1490 C   0  0  0  0  0  0  0  0  0  0  0  0
   24.2140   15.9760   18.3140 H   0  0  0  0  0  0  0  0  0  0  0  0
   25.8440   15.0280   19.9340 H   0  0  0  0  0  0  0  0  0  0  0  0
   21.4360   12.7590   18.8870 H   0  0  0  0  0  0  0  0  0  0  0  0
   22.2830   10.7610   20.1720 H   0  0  0  0  0  0  0  0  0  0  0  0
   22.6300   11.5310   21.7390 H   0  0  0  0  0  0  0  0  0  0  0  0
   23.3180    8.7070   21.0120 H   0  0  0  0  0  0  0  0  0  0  0  0
   23.6640    9.5250   22.5540 H   0  0  0  0  0  0  0  0  0  0  0  0
   24.9770    8.7260   21.6560 H   0  0  0  0  0  0  0  0  0  0  0  0
   24.0590    9.5610   18.9240 H   0  0  0  0  0  0  0  0  0  0  0  0
   25.7430    9.6040   19.4980 H   0  0  0  0  0  0  0  0  0  0  0  0
   24.9990   11.0680   18.8130 H   0  0  0  0  0  0  0  0  0  0  0  0
   25.9250   10.9690   22.1890 H   0  0  0  0  0  0  0  0  0  0  0  0
   26.1200   14.4730   21.9150 H   0  0  0  0  0  0  0  0  0  0  0  0
   27.2200   11.9210   23.0510 H   0  0  0  0  0  0  0  0  0  0  0  0
   29.5500   13.0630   22.8860 H   0  0  0  0  0  0  0  0  0  0  0  0
   28.8210   13.9390   21.5190 H   0  0  0  0  0  0  0  0  0  0  0  0
   29.3430   10.3090   22.8680 H   0  0  0  0  0  0  0  0  0  0  0  0
   28.4770   10.0970   18.1840 H   0  0  0  0  0  0  0  0  0  0  0  0
   26.7730   11.7400   17.5390 H   0  0  0  0  0  0  0  0  0  0  0  0
   27.8460   15.8010   18.0180 H   0  0  0  0  0  0  0  0  0  0  0  0
   29.1660   14.5340   19.8940 H   0  0  0  0  0  0  0  0  0  0  0  0
  1  2  1  0  0  0  0
  2  3  2  0  0  0  0
  2  5  1  0  0  0  0
  3  4  1  0  0  0  0
  3 30  1  0  0  0  0
  4  7  2  0  0  0  0
  4 31  1  0  0  0  0
  5  6  2  0  0  0  0
  5 32  1  0  0  0  0
  6  7  1  0  0  0  0
  6  8  1  0  0  0  0
  7 13  1  0  0  0  0
  8  9  1  0  0  0  0
  8 33  1  0  0  0  0
  8 34  1  0  0  0  0
  9 10  1  0  0  0  0
  9 11  1  0  0  0  0
  9 12  1  0  0  0  0
 10 35  1  0  0  0  0
 10 36  1  0  0  0  0
 10 37  1  0  0  0  0
 11 38  1  0  0  0  0
 11 39  1  0  0  0  0
 11 40  1  0  0  0  0
 12 13  2  0  0  0  0
 12 41  1  0  0  0  0
 13 14  1  0  0  0  0
 14 15  1  0  0  0  0
 14 42  1  0  0  0  0
 15 16  1  0  0  0  0
 15 19  1  0  0  0  0
 15 43  1  0  0  0  0
 16 17  2  0  0  0  0
 16 18  1  0  0  0  0
 19 20  1  0  0  0  0
 19 44  1  0  0  0  0
 19 45  1  0  0  0  0
 20 21  2  0  0  0  0
 20 24  1  0  0  0  0
 21 22  1  0  0  0  0
 21 46  1  0  0  0  0
 22 23  1  0  0  0  0
 23 24  2  0  0  0  0
 23 47  1  0  0  0  0
 24 25  1  0  0  0  0
 25 26  1  0  0  0  0
 25 29  2  0  0  0  0
 26 27  2  0  0  0  0
 26 48  1  0  0  0  0
 27 28  1  0  0  0  0
 28 29  1  0  0  0  0
 28 49  1  0  0  0  0
 29 50  1  0  0  0  0
M  CHG  1  12   1
M  CHG  1  18  -1
M  END
>  <PARENT_CMPD_ID>
4I0F

>  <STANDARD_TYPE>
IC50

>  <RELATION>
=

>  <STANDARD_VALUE>
0.44999999

>  <STANDARD_UNITS>
uM

>  <COMPOUND_KEY>
7d

>  <PUBMED_ID>
23570791

>  <JOURNAL>
Bioorg.Med.Chem.Lett.

>  <YEAR>
2013

>  <VOLUME>
23

>  <FIRST_PAGE>
3075

>  <Company>
Elan

>  <Resolution>
1.8

>  <idx>
129

>  <Model>
Train

>  <target>
6.3467875

>  <des_pred_mlr>
5.6895399

>  <RF_Canvas>
6.4638729

>  <DNN_Canvas>
6.3938456

>  <pred_CoMFA>
6.2929001

>  <pred_COMSIA>
5.8593001

>  <pred_abm5>
6.4066195

>  <pred_ff8>
5.5127749

>  <pred_gau6>
6.0200229

>  <CID>
BACE_129

>  <active>
0

>  <des_class_bayes>
0

>  <maacs_class_bayes>
0

>  <radial_class_bayes>
0

>  <dend_class_bayes>
0

>  <molprint_class_bayes>
0

>  <RF_canvas>
0

>  <DNN_canvas>
0

$$$$
4I0Z_2181
  MOE2015           3D

 54 57  0  0  1  0  0  0  0  0999 V2000
   22.0470   15.4260   17.4570 Cl  0  0  0  0  0  0  0  0  0  0  0  0
   23.1070   14.6740   18.6620 C   0  0  0  0  0  0  0  0  0  0  0  0
   22.7100   13.4120   19.1930 C   0  0  0  0  0  0  0  0  0  0  0  0
   23.5940   12.8180   20.0580 C   0  0  0  0  0  0  0  0  0  0  0  0
   24.7570   13.4850   20.3940 C   0  0  0  0  0  0  0  0  0  0  0  0
   25.1410   14.7310   19.8250 C   0  0  0  0  0  0  0  0  0  0  0  0
   24.2800   15.3800   18.9570 C   0  0  0  0  0  0  0  0  0  0  0  0
   23.2970   11.4840   20.6830 C   0  0  0  0  0  0  0  0  0  0  0  0
   24.5750   10.6660   20.8050 C   0  0  0  0  0  0  0  0  0  0  0  0
   25.5140   11.4980   21.5850 N   0  3  0  0  0  0  0  0  0  0  0  0
   25.6290   12.7850   21.3870 C   0  0  0  0  0  0  0  0  0  0  0  0
   26.5020   13.5610   22.0620 N   0  0  0  0  0  0  0  0  0  0  0  0
   27.4200   12.9910   23.0680 C   0  0  3  0  0  0  0  0  0  0  0  0
   28.8580   12.8160   22.4480 C   0  0  0  0  0  0  0  0  0  0  0  0
   24.1900    9.3860   21.5950 C   0  0  0  0  0  0  0  0  0  0  0  0
   25.1470   10.3200   19.4010 C   0  0  0  0  0  0  0  0  0  0  0  0
   27.5350   14.0060   24.1470 C   0  0  0  0  0  0  0  0  0  0  0  0
   26.9930   15.2690   23.9730 N   0  0  0  0  0  0  0  0  0  0  0  0
   27.1760   16.2530   24.8860 C   0  0  0  0  0  0  0  0  0  0  0  0
   28.0150   16.0520   25.9810 C   0  0  0  0  0  0  0  0  0  0  0  0
   28.6000   14.7060   26.1370 C   0  0  0  0  0  0  0  0  0  0  0  0
   28.3310   13.7440   25.1970 N   0  0  0  0  0  0  0  0  0  0  0  0
   29.3470   14.4930   27.0900 O   0  0  0  0  0  0  0  0  0  0  0  0
   28.8600   11.6730   21.4000 C   0  0  0  0  0  0  0  0  0  0  0  0
   28.8320   10.3610   21.8900 C   0  0  0  0  0  0  0  0  0  0  0  0
   28.7860    9.2000   21.0680 C   0  0  0  0  0  0  0  0  0  0  0  0
   28.8200    9.4310   19.6490 C   0  0  0  0  0  0  0  0  0  0  0  0
   28.8630   10.7570   19.1510 C   0  0  0  0  0  0  0  0  0  0  0  0
   28.8760   11.9160   19.9960 C   0  0  0  0  0  0  0  0  0  0  0  0
   28.2410   16.9770   26.8660 C   0  0  0  0  0  0  0  0  0  0  0  0
   28.4710   17.8210   27.6580 N   0  0  0  0  0  0  0  0  0  0  0  0
   21.7690   12.9510   18.9300 H   0  0  0  0  0  0  0  0  0  0  0  0
   26.0980   15.1680   20.0690 H   0  0  0  0  0  0  0  0  0  0  0  0
   24.4960   16.3530   18.5410 H   0  0  0  0  0  0  0  0  0  0  0  0
   22.5830   10.9450   20.0600 H   0  0  0  0  0  0  0  0  0  0  0  0
   22.8710   11.6370   21.6750 H   0  0  0  0  0  0  0  0  0  0  0  0
   26.0850   11.0590   22.2930 H   0  0  0  0  0  0  0  0  0  0  0  0
   26.5280   14.5530   21.8750 H   0  0  0  0  0  0  0  0  0  0  0  0
   27.0500   12.0280   23.4190 H   0  0  0  0  0  0  0  0  0  0  0  0
   29.5650   12.5760   23.2420 H   0  0  0  0  0  0  0  0  0  0  0  0
   29.1560   13.7460   21.9650 H   0  0  0  0  0  0  0  0  0  0  0  0
   23.7940    9.6670   22.5710 H   0  0  0  0  0  0  0  0  0  0  0  0
   25.0730    8.7610   21.7270 H   0  0  0  0  0  0  0  0  0  0  0  0
   23.4320    8.8310   21.0410 H   0  0  0  0  0  0  0  0  0  0  0  0
   25.4050   11.2400   18.8770 H   0  0  0  0  0  0  0  0  0  0  0  0
   24.3980    9.7740   18.8280 H   0  0  0  0  0  0  0  0  0  0  0  0
   26.0390    9.7030   19.5140 H   0  0  0  0  0  0  0  0  0  0  0  0
   26.6690   17.1990   24.7650 H   0  0  0  0  0  0  0  0  0  0  0  0
   28.7380   12.8250   25.2960 H   0  0  0  0  0  0  0  0  0  0  0  0
   28.8460   10.2210   22.9610 H   0  0  0  0  0  0  0  0  0  0  0  0
   28.7290    8.2050   21.4850 H   0  0  0  0  0  0  0  0  0  0  0  0
   28.8130    8.5960   18.9640 H   0  0  0  0  0  0  0  0  0  0  0  0
   28.8870   10.9020   18.0810 H   0  0  0  0  0  0  0  0  0  0  0  0
   28.8970   12.9170   19.5910 H   0  0  0  0  0  0  0  0  0  0  0  0
  1  2  1  0  0  0  0
  2  3  1  0  0  0  0
  2  7  2  0  0  0  0
  3  4  2  0  0  0  0
  3 32  1  0  0  0  0
  4  5  1  0  0  0  0
  4  8  1  0  0  0  0
  5  6  2  0  0  0  0
  5 11  1  0  0  0  0
  6  7  1  0  0  0  0
  6 33  1  0  0  0  0
  7 34  1  0  0  0  0
  8  9  1  0  0  0  0
  8 35  1  0  0  0  0
  8 36  1  0  0  0  0
  9 10  1  0  0  0  0
  9 15  1  0  0  0  0
  9 16  1  0  0  0  0
 10 11  2  0  0  0  0
 10 37  1  0  0  0  0
 11 12  1  0  0  0  0
 12 13  1  0  0  0  0
 12 38  1  0  0  0  0
 13 14  1  0  0  0  0
 13 17  1  0  0  0  0
 13 39  1  0  0  0  0
 14 24  1  0  0  0  0
 14 40  1  0  0  0  0
 14 41  1  0  0  0  0
 15 42  1  0  0  0  0
 15 43  1  0  0  0  0
 15 44  1  0  0  0  0
 16 45  1  0  0  0  0
 16 46  1  0  0  0  0
 16 47  1  0  0  0  0
 17 18  2  0  0  0  0
 17 22  1  0  0  0  0
 18 19  1  0  0  0  0
 19 20  2  0  0  0  0
 19 48  1  0  0  0  0
 20 21  1  0  0  0  0
 20 30  1  0  0  0  0
 21 22  1  0  0  0  0
 21 23  2  0  0  0  0
 22 49  1  0  0  0  0
 24 25  1  0  0  0  0
 24 29  2  0  0  0  0
 25 26  2  0  0  0  0
 25 50  1  0  0  0  0
 26 27  1  0  0  0  0
 26 51  1  0  0  0  0
 27 28  2  0  0  0  0
 27 52  1  0  0  0  0
 28 29  1  0  0  0  0
 28 53  1  0  0  0  0
 29 54  1  0  0  0  0
 30 31  3  0  0  0  0
M  CHG  1  10   1
M  END
>  <PARENT_CMPD_ID>
4I0Z

>  <STANDARD_TYPE>
IC50

>  <RELATION>
=

>  <STANDARD_VALUE>
0.47

>  <STANDARD_UNITS>
uM

>  <COMPOUND_KEY>
35

>  <PUBMED_ID>
23465612

>  <JOURNAL>
Bioorg.Med.Chem.Lett.

>  <YEAR>
2013

>  <VOLUME>
23

>  <FIRST_PAGE>
2181

>  <Company>
Elan

>  <Resolution>
1.8

>  <idx>
130

>  <Model>
Train

>  <target>
6.3279023

>  <des_pred_mlr>
6.3450098

>  <RF_Canvas>
6.620719

>  <DNN_Canvas>
6.6389475

>  <pred_CoMFA>
6.4678998

>  <pred_COMSIA>
6.0321999

>  <pred_abm5>
6.3520875

>  <pred_ff8>
5.1917791

>  <pred_gau6>
6.1088867

>  <CID>
BACE_130

>  <active>
0

>  <des_class_bayes>
0

>  <maacs_class_bayes>
0

>  <radial_class_bayes>
0

>  <dend_class_bayes>
0

>  <molprint_class_bayes>
0

>  <RF_canvas>
0

>  <DNN_canvas>
0

$$$$
3NSH_6034
  MOE2015           3D

 64 66  0  0  1  0  0  0  0  0999 V2000
   25.3310   13.5940   23.4150 C   0  0  0  0  0  0  0  0  0  0  0  0
   24.0400   12.8930   23.1170 C   0  0  0  0  0  0  0  0  0  0  0  0
   24.1040   11.5680   22.9950 N   0  0  0  0  0  0  0  0  0  0  0  0
   22.9680   10.7760   22.5880 C   0  0  3  0  0  0  0  0  0  0  0  0
   22.4420   10.0950   23.8180 C   0  0  3  0  0  0  0  0  0  0  0  0
   22.0980   11.0380   24.9560 C   0  0  0  0  0  0  0  0  0  0  0  0
   21.2260   10.3330   25.8840 N   0  3  0  0  0  0  0  0  0  0  0  0
   20.3290   11.2130   26.6690 C   0  0  0  0  0  0  0  0  0  0  0  0
   19.1840   11.8080   25.9060 C   0  0  0  0  0  0  0  0  0  0  0  0
   18.3940   11.0880   25.0490 C   0  0  0  0  0  0  0  0  0  0  0  0
   17.4220   11.9010   24.4340 C   0  0  0  0  0  0  0  0  0  0  0  0
   17.5120   13.2420   24.7840 C   0  0  0  0  0  0  0  0  0  0  0  0
   18.8190   13.4820   25.8950 S   0  0  0  0  0  0  0  0  0  0  0  0
   16.4170   11.3620   23.4560 C   0  0  0  0  0  0  0  0  0  0  0  0
   15.1490   10.7850   24.0310 C   0  0  0  0  0  0  0  0  0  0  0  0
   14.3650   11.8750   24.7430 C   0  0  0  0  0  0  0  0  0  0  0  0
   15.5130    9.5940   24.9160 C   0  0  0  0  0  0  0  0  0  0  0  0
   14.2160   10.3330   22.9020 C   0  0  0  0  0  0  0  0  0  0  0  0
   22.9790   13.5030   23.0060 O   0  0  0  0  0  0  0  0  0  0  0  0
   23.4440    9.7840   21.5580 C   0  0  0  0  0  0  0  0  0  0  0  0
   24.0600   10.6220   20.4260 C   0  0  0  0  0  0  0  0  0  0  0  0
   25.3970   10.4170   20.0600 C   0  0  0  0  0  0  0  0  0  0  0  0
   25.9540   11.1950   19.0460 C   0  0  0  0  0  0  0  0  0  0  0  0
   25.2050   12.1850   18.4140 C   0  0  0  0  0  0  0  0  0  0  0  0
   23.8760   12.3970   18.7820 C   0  0  0  0  0  0  0  0  0  0  0  0
   23.2990   11.6010   19.7890 C   0  0  0  0  0  0  0  0  0  0  0  0
   27.3160   11.0280   18.5800 F   0  0  0  0  0  0  0  0  0  0  0  0
   23.1580   13.4750   18.0320 F   0  0  0  0  0  0  0  0  0  0  0  0
   21.2550    9.3890   23.4790 O   0  0  0  0  0  0  0  0  0  0  0  0
   20.9520   12.1440   27.7210 C   0  0  0  0  0  0  0  0  0  0  0  0
   20.0620   10.9700   28.1610 C   0  0  0  0  0  0  0  0  0  0  0  0
   26.1370   12.8630   23.4690 H   0  0  0  0  0  0  0  0  0  0  0  0
   25.2490   14.1160   24.3680 H   0  0  0  0  0  0  0  0  0  0  0  0
   25.5450   14.3130   22.6240 H   0  0  0  0  0  0  0  0  0  0  0  0
   24.9770   11.1020   23.1940 H   0  0  0  0  0  0  0  0  0  0  0  0
   22.1710   11.3730   22.1450 H   0  0  0  0  0  0  0  0  0  0  0  0
   23.2430    9.4430   24.1650 H   0  0  0  0  0  0  0  0  0  0  0  0
   21.5860   11.9170   24.5650 H   0  0  0  0  0  0  0  0  0  0  0  0
   23.0100   11.3460   25.4680 H   0  0  0  0  0  0  0  0  0  0  0  0
   21.8050    9.8150   26.5300 H   0  0  0  0  0  0  0  0  0  0  0  0
   20.6540    9.6910   25.3540 H   0  0  0  0  0  0  0  0  0  0  0  0
   18.5030   10.0290   24.8680 H   0  0  0  0  0  0  0  0  0  0  0  0
   16.8610   14.0220   24.4170 H   0  0  0  0  0  0  0  0  0  0  0  0
   16.9060   10.5750   22.8810 H   0  0  0  0  0  0  0  0  0  0  0  0
   16.1350   12.1770   22.7900 H   0  0  0  0  0  0  0  0  0  0  0  0
   14.9550   12.2640   25.5730 H   0  0  0  0  0  0  0  0  0  0  0  0
   13.4310   11.4610   25.1230 H   0  0  0  0  0  0  0  0  0  0  0  0
   14.1470   12.6820   24.0430 H   0  0  0  0  0  0  0  0  0  0  0  0
   16.1760    9.9250   25.7150 H   0  0  0  0  0  0  0  0  0  0  0  0
   16.0170    8.8360   24.3160 H   0  0  0  0  0  0  0  0  0  0  0  0
   14.6060    9.1720   25.3480 H   0  0  0  0  0  0  0  0  0  0  0  0
   13.9620   11.1890   22.2760 H   0  0  0  0  0  0  0  0  0  0  0  0
   13.3060    9.9120   23.3290 H   0  0  0  0  0  0  0  0  0  0  0  0
   14.7170    9.5770   22.2980 H   0  0  0  0  0  0  0  0  0  0  0  0
   22.6070    9.1950   21.1830 H   0  0  0  0  0  0  0  0  0  0  0  0
   24.1920    9.1190   21.9890 H   0  0  0  0  0  0  0  0  0  0  0  0
   25.9900    9.6640   20.5580 H   0  0  0  0  0  0  0  0  0  0  0  0
   25.6530   12.7890   17.6390 H   0  0  0  0  0  0  0  0  0  0  0  0
   22.2660   11.7490   20.0680 H   0  0  0  0  0  0  0  0  0  0  0  0
   20.6070   10.0340   23.1860 H   0  0  0  0  0  0  0  0  0  0  0  0
   20.5930   13.1680   27.8230 H   0  0  0  0  0  0  0  0  0  0  0  0
   22.0250   12.1140   27.9080 H   0  0  0  0  0  0  0  0  0  0  0  0
   20.5040   10.1080   28.6600 H   0  0  0  0  0  0  0  0  0  0  0  0
   19.0720   11.1620   28.5760 H   0  0  0  0  0  0  0  0  0  0  0  0
  1  2  1  0  0  0  0
  1 32  1  0  0  0  0
  1 33  1  0  0  0  0
  1 34  1  0  0  0  0
  2  3  1  0  0  0  0
  2 19  2  0  0  0  0
  3  4  1  0  0  0  0
  3 35  1  0  0  0  0
  4  5  1  0  0  0  0
  4 20  1  0  0  0  0
  4 36  1  0  0  0  0
  5  6  1  0  0  0  0
  5 29  1  0  0  0  0
  5 37  1  0  0  0  0
  6  7  1  0  0  0  0
  6 38  1  0  0  0  0
  6 39  1  0  0  0  0
  7  8  1  0  0  0  0
  7 40  1  0  0  0  0
  7 41  1  0  0  0  0
  8  9  1  0  0  0  0
  8 30  1  0  0  0  0
  8 31  1  0  0  0  0
  9 10  2  0  0  0  0
  9 13  1  0  0  0  0
 10 11  1  0  0  0  0
 10 42  1  0  0  0  0
 11 12  2  0  0  0  0
 11 14  1  0  0  0  0
 12 13  1  0  0  0  0
 12 43  1  0  0  0  0
 14 15  1  0  0  0  0
 14 44  1  0  0  0  0
 14 45  1  0  0  0  0
 15 16  1  0  0  0  0
 15 17  1  0  0  0  0
 15 18  1  0  0  0  0
 16 46  1  0  0  0  0
 16 47  1  0  0  0  0
 16 48  1  0  0  0  0
 17 49  1  0  0  0  0
 17 50  1  0  0  0  0
 17 51  1  0  0  0  0
 18 52  1  0  0  0  0
 18 53  1  0  0  0  0
 18 54  1  0  0  0  0
 20 21  1  0  0  0  0
 20 55  1  0  0  0  0
 20 56  1  0  0  0  0
 21 22  1  0  0  0  0
 21 26  2  0  0  0  0
 22 23  2  0  0  0  0
 22 57  1  0  0  0  0
 23 24  1  0  0  0  0
 23 27  1  0  0  0  0
 24 25  2  0  0  0  0
 24 58  1  0  0  0  0
 25 26  1  0  0  0  0
 25 28  1  0  0  0  0
 26 59  1  0  0  0  0
 29 60  1  0  0  0  0
 30 31  1  0  0  0  0
 30 61  1  0  0  0  0
 30 62  1  0  0  0  0
 31 63  1  0  0  0  0
 31 64  1  0  0  0  0
M  CHG  1   7   1
M  END
>  <PARENT_CMPD_ID>
3NSH

>  <STANDARD_TYPE>
IC50

>  <RELATION>
=

>  <STANDARD_VALUE>
0.47

>  <STANDARD_UNITS>
uM

>  <COMPOUND_KEY>
53

>  <PUBMED_ID>
20822903

>  <JOURNAL>
Bioorg.Med.Chem.Lett.

>  <YEAR>
2010

>  <VOLUME>
20

>  <FIRST_PAGE>
6034

>  <Company>
Elan

>  <Resolution>
2.2

>  <idx>
131

>  <Model>
Train

>  <target>
6.3279023

>  <des_pred_mlr>
6.7153502

>  <RF_Canvas>
6.6431231

>  <DNN_Canvas>
6.5032053

>  <pred_CoMFA>
6.3885002

>  <pred_COMSIA>
6.4614

>  <pred_abm5>
6.7519226

>  <pred_ff8>
6.8431439

>  <pred_gau6>
6.9138589

>  <CID>
BACE_131

>  <active>
0

>  <des_class_bayes>
0

>  <maacs_class_bayes>
1

>  <radial_class_bayes>
0

>  <dend_class_bayes>
0

>  <molprint_class_bayes>
0

>  <RF_canvas>
0

>  <DNN_canvas>
1

$$$$
3DUY_1361
  MOE2015           3D

 82 81  0  0  1  0  0  0  0  0999 V2000
   26.2110   17.6040   25.9990 S   0  0  0  0  0  0  0  0  0  0  0  0
   26.5960   15.9090   25.4420 C   0  0  0  0  0  0  0  0  0  0  0  0
   25.4910   15.3910   24.4850 C   0  0  0  0  0  0  0  0  0  0  0  0
   25.7110   13.9110   24.0310 C   0  0  3  0  0  0  0  0  0  0  0  0
   26.7650   13.8290   23.0120 N   0  0  0  0  0  0  0  0  0  0  0  0
   28.0730   13.5710   23.2930 C   0  0  0  0  0  0  0  0  0  0  0  0
   28.5120   13.3760   24.4240 O   0  0  0  0  0  0  0  0  0  0  0  0
   29.0130   13.5340   22.1090 C   0  0  0  0  0  0  0  0  0  0  0  0
   29.5860   12.1220   21.8000 C   0  0  0  0  0  0  0  0  0  0  0  0
   28.5920   11.1140   21.1480 C   0  0  0  0  0  0  0  0  0  0  0  0
   28.9870    9.6500   21.4830 C   0  0  0  0  0  0  0  0  0  0  0  0
   28.6000   11.2810   19.6060 C   0  0  0  0  0  0  0  0  0  0  0  0
   24.4470   13.2720   23.4870 C   0  0  0  0  0  0  0  0  0  0  0  0
   23.4790   13.9680   23.1820 O   0  0  0  0  0  0  0  0  0  0  0  0
   24.4430   11.9160   23.3610 N   0  0  0  0  0  0  0  0  0  0  0  0
   23.2920   11.1600   22.8420 C   0  0  3  0  0  0  0  0  0  0  0  0
   22.5750   10.4100   24.0080 C   0  0  3  0  0  0  0  0  0  0  0  0
   23.3650    9.3040   24.4820 O   0  0  0  0  0  0  0  0  0  0  0  0
   22.0680   11.3070   25.1880 C   0  0  0  0  0  0  0  0  0  0  0  0
   20.7850   10.8020   25.9140 C   0  0  3  0  0  0  0  0  0  0  0  0
   20.7790   11.3320   27.3710 C   0  0  0  0  0  0  0  0  0  0  0  0
   19.5040   11.2650   25.2440 C   0  0  0  0  0  0  0  0  0  0  0  0
   19.4290   12.4030   24.7940 O   0  0  0  0  0  0  0  0  0  0  0  0
   18.4890   10.3760   25.1800 N   0  0  0  0  0  0  0  0  0  0  0  0
   17.2040   10.7050   24.5760 C   0  0  0  0  0  0  0  0  0  0  0  0
   16.1400    9.6190   24.8470 C   0  0  0  0  0  0  0  0  0  0  0  0
   14.7160   10.1700   24.6060 C   0  0  0  0  0  0  0  0  0  0  0  0
   14.3780   10.2890   23.1070 C   0  0  0  0  0  0  0  0  0  0  0  0
   23.7040   10.2760   21.6230 C   0  0  0  0  0  0  0  0  0  0  0  0
   24.3440   11.0500   20.4230 C   0  0  0  0  0  0  0  0  0  0  0  0
   23.3230   11.9320   19.6480 C   0  0  0  0  0  0  0  0  0  0  0  0
   25.0120   10.0420   19.4440 C   0  0  0  0  0  0  0  0  0  0  0  0
   27.8910   18.1860   26.3820 C   0  0  0  0  0  0  0  0  0  0  0  0
   26.6580   15.2510   26.3090 H   0  0  0  0  0  0  0  0  0  0  0  0
   27.5520   15.9110   24.9190 H   0  0  0  0  0  0  0  0  0  0  0  0
   25.4750   16.0260   23.5990 H   0  0  0  0  0  0  0  0  0  0  0  0
   24.5310   15.4570   24.9970 H   0  0  0  0  0  0  0  0  0  0  0  0
   26.0110   13.3610   24.9230 H   0  0  0  0  0  0  0  0  0  0  0  0
   26.5050   13.9720   22.0470 H   0  0  0  0  0  0  0  0  0  0  0  0
   29.8470   14.2050   22.3130 H   0  0  0  0  0  0  0  0  0  0  0  0
   28.4710   13.8840   21.2300 H   0  0  0  0  0  0  0  0  0  0  0  0
   29.9330   11.6890   22.7380 H   0  0  0  0  0  0  0  0  0  0  0  0
   30.4300   12.2450   21.1220 H   0  0  0  0  0  0  0  0  0  0  0  0
   27.5990   11.3220   21.5470 H   0  0  0  0  0  0  0  0  0  0  0  0
   29.9800    9.4410   21.0850 H   0  0  0  0  0  0  0  0  0  0  0  0
   28.2650    8.9670   21.0350 H   0  0  0  0  0  0  0  0  0  0  0  0
   28.9930    9.5140   22.5640 H   0  0  0  0  0  0  0  0  0  0  0  0
   29.5980   11.0700   19.2230 H   0  0  0  0  0  0  0  0  0  0  0  0
   28.3210   12.3030   19.3500 H   0  0  0  0  0  0  0  0  0  0  0  0
   27.8860   10.5880   19.1620 H   0  0  0  0  0  0  0  0  0  0  0  0
   25.2690   11.4050   23.6370 H   0  0  0  0  0  0  0  0  0  0  0  0
   22.5440   11.8400   22.4350 H   0  0  0  0  0  0  0  0  0  0  0  0
   21.6580   10.0290   23.5590 H   0  0  0  0  0  0  0  0  0  0  0  0
   24.1650    9.6650   24.8720 H   0  0  0  0  0  0  0  0  0  0  0  0
   21.8590   12.3000   24.7890 H   0  0  0  0  0  0  0  0  0  0  0  0
   22.8670   11.3730   25.9260 H   0  0  0  0  0  0  0  0  0  0  0  0
   20.8120    9.7130   25.8780 H   0  0  0  0  0  0  0  0  0  0  0  0
   20.7510   12.4220   27.3610 H   0  0  0  0  0  0  0  0  0  0  0  0
   21.6800   10.9960   27.8840 H   0  0  0  0  0  0  0  0  0  0  0  0
   19.9010   10.9510   27.8930 H   0  0  0  0  0  0  0  0  0  0  0  0
   18.6250    9.4520   25.5640 H   0  0  0  0  0  0  0  0  0  0  0  0
   17.3370   10.8050   23.4990 H   0  0  0  0  0  0  0  0  0  0  0  0
   16.8540   11.6510   24.9890 H   0  0  0  0  0  0  0  0  0  0  0  0
   16.2240    9.2870   25.8820 H   0  0  0  0  0  0  0  0  0  0  0  0
   16.3140    8.7750   24.1800 H   0  0  0  0  0  0  0  0  0  0  0  0
   14.6410   11.1580   25.0610 H   0  0  0  0  0  0  0  0  0  0  0  0
   13.9970    9.4980   25.0750 H   0  0  0  0  0  0  0  0  0  0  0  0
   15.0910   10.9590   22.6260 H   0  0  0  0  0  0  0  0  0  0  0  0
   13.3700   10.6880   22.9920 H   0  0  0  0  0  0  0  0  0  0  0  0
   14.4340    9.3040   22.6430 H   0  0  0  0  0  0  0  0  0  0  0  0
   22.8110    9.7680   21.2580 H   0  0  0  0  0  0  0  0  0  0  0  0
   24.4260    9.5370   21.9710 H   0  0  0  0  0  0  0  0  0  0  0  0
   25.0890   11.7240   20.8450 H   0  0  0  0  0  0  0  0  0  0  0  0
   22.5550   11.2960   19.2060 H   0  0  0  0  0  0  0  0  0  0  0  0
   23.8400   12.4790   18.8590 H   0  0  0  0  0  0  0  0  0  0  0  0
   22.8580   12.6390   20.3350 H   0  0  0  0  0  0  0  0  0  0  0  0
   24.2520    9.3770   19.0330 H   0  0  0  0  0  0  0  0  0  0  0  0
   25.7570    9.4540   19.9800 H   0  0  0  0  0  0  0  0  0  0  0  0
   25.4940   10.5880   18.6330 H   0  0  0  0  0  0  0  0  0  0  0  0
   27.8460   19.2150   26.7400 H   0  0  0  0  0  0  0  0  0  0  0  0
   28.5050   18.1410   25.4830 H   0  0  0  0  0  0  0  0  0  0  0  0
   28.3280   17.5520   27.1530 H   0  0  0  0  0  0  0  0  0  0  0  0
  1  2  1  0  0  0  0
  1 33  1  0  0  0  0
  2  3  1  0  0  0  0
  2 34  1  0  0  0  0
  2 35  1  0  0  0  0
  3  4  1  0  0  0  0
  3 36  1  0  0  0  0
  3 37  1  0  0  0  0
  4  5  1  0  0  0  0
  4 13  1  0  0  0  0
  4 38  1  0  0  0  0
  5  6  1  0  0  0  0
  5 39  1  0  0  0  0
  6  7  2  0  0  0  0
  6  8  1  0  0  0  0
  8  9  1  0  0  0  0
  8 40  1  0  0  0  0
  8 41  1  0  0  0  0
  9 10  1  0  0  0  0
  9 42  1  0  0  0  0
  9 43  1  0  0  0  0
 10 11  1  0  0  0  0
 10 12  1  0  0  0  0
 10 44  1  0  0  0  0
 11 45  1  0  0  0  0
 11 46  1  0  0  0  0
 11 47  1  0  0  0  0
 12 48  1  0  0  0  0
 12 49  1  0  0  0  0
 12 50  1  0  0  0  0
 13 14  2  0  0  0  0
 13 15  1  0  0  0  0
 15 16  1  0  0  0  0
 15 51  1  0  0  0  0
 16 17  1  0  0  0  0
 16 29  1  0  0  0  0
 16 52  1  0  0  0  0
 17 18  1  0  0  0  0
 17 19  1  0  0  0  0
 17 53  1  0  0  0  0
 18 54  1  0  0  0  0
 19 20  1  0  0  0  0
 19 55  1  0  0  0  0
 19 56  1  0  0  0  0
 20 21  1  0  0  0  0
 20 22  1  0  0  0  0
 20 57  1  0  0  0  0
 21 58  1  0  0  0  0
 21 59  1  0  0  0  0
 21 60  1  0  0  0  0
 22 23  2  0  0  0  0
 22 24  1  0  0  0  0
 24 25  1  0  0  0  0
 24 61  1  0  0  0  0
 25 26  1  0  0  0  0
 25 62  1  0  0  0  0
 25 63  1  0  0  0  0
 26 27  1  0  0  0  0
 26 64  1  0  0  0  0
 26 65  1  0  0  0  0
 27 28  1  0  0  0  0
 27 66  1  0  0  0  0
 27 67  1  0  0  0  0
 28 68  1  0  0  0  0
 28 69  1  0  0  0  0
 28 70  1  0  0  0  0
 29 30  1  0  0  0  0
 29 71  1  0  0  0  0
 29 72  1  0  0  0  0
 30 31  1  0  0  0  0
 30 32  1  0  0  0  0
 30 73  1  0  0  0  0
 31 74  1  0  0  0  0
 31 75  1  0  0  0  0
 31 76  1  0  0  0  0
 32 77  1  0  0  0  0
 32 78  1  0  0  0  0
 32 79  1  0  0  0  0
 33 80  1  0  0  0  0
 33 81  1  0  0  0  0
 33 82  1  0  0  0  0
M  END
>  <PARENT_CMPD_ID>
3DUY

>  <STANDARD_TYPE>
IC50

>  <RELATION>
=

>  <STANDARD_VALUE>
0.58999997

>  <STANDARD_UNITS>
uM

>  <COMPOUND_KEY>
3b

>  <PUBMED_ID>
19195886

>  <JOURNAL>
Bioorg.Med.Chem.Lett.

>  <YEAR>
2009

>  <VOLUME>
19

>  <FIRST_PAGE>
1361

>  <Company>
Novartis

>  <Resolution>
1.97

>  <idx>
132

>  <Model>
Train

>  <target>
6.2291479

>  <des_pred_mlr>
6.65277

>  <RF_Canvas>
6.4354668

>  <DNN_Canvas>
6.7083392

>  <pred_CoMFA>
6.0822001

>  <pred_COMSIA>
6.2537999

>  <pred_abm5>
6.2700667

>  <pred_ff8>
6.2000451

>  <pred_gau6>
5.9562292

>  <CID>
BACE_132

>  <active>
0

>  <des_class_bayes>
1

>  <maacs_class_bayes>
0

>  <radial_class_bayes>
0

>  <dend_class_bayes>
0

>  <molprint_class_bayes>
0

>  <RF_canvas>
0

>  <DNN_canvas>
0

$$$$
2QU3_5353
  MOE2015           3D

 52 54  0  0  0  0  0  0  0  0999 V2000
   29.8080   10.3310   22.0170 C   0  0  0  0  0  0  0  0  0  0  0  0
   28.9770   10.8780   20.8990 C   0  0  0  0  0  0  0  0  0  0  0  0
   27.5370   10.4620   20.9530 C   0  0  0  0  0  0  0  0  0  0  0  0
   26.9320   10.9290   19.7660 O   0  0  0  0  0  0  0  0  0  0  0  0
   25.5860   11.1110   19.6480 C   0  0  0  0  0  0  0  0  0  0  0  0
   24.8760   11.1160   18.4230 C   0  0  0  0  0  0  0  0  0  0  0  0
   23.4800   11.3240   18.3850 C   0  0  0  0  0  0  0  0  0  0  0  0
   22.7370   11.4790   19.5630 C   0  0  0  0  0  0  0  0  0  0  0  0
   23.4740   11.4710   20.7970 C   0  0  0  0  0  0  0  0  0  0  0  0
   24.8490   11.2660   20.8440 C   0  0  0  0  0  0  0  0  0  0  0  0
   21.2820   11.6870   19.5070 C   0  0  0  0  0  0  0  0  0  0  0  0
   20.6570   12.6600   18.6640 C   0  0  0  0  0  0  0  0  0  0  0  0
   18.9600   12.6590   18.7570 S   0  0  0  0  0  0  0  0  0  0  0  0
   18.9630   11.4090   19.8830 C   0  0  0  0  0  0  0  0  0  0  0  0
   20.2680   10.9340   20.1860 C   0  0  0  0  0  0  0  0  0  0  0  0
   20.5080    9.8280   21.2010 C   0  0  0  0  0  0  0  0  0  0  0  0
   20.7150   10.4570   22.5640 C   0  0  0  0  0  0  0  0  0  0  0  0
   20.2110   11.5310   22.8010 O   0  0  0  0  0  0  0  0  0  0  0  0
   21.3950    9.6030   23.3880 N   0  0  0  0  0  0  0  0  0  0  0  0
   21.6200    8.6850   23.0310 H   0  0  0  0  0  0  0  0  0  0  0  0
   21.7660    9.8870   24.5810 C   0  0  0  0  0  0  0  0  0  0  0  0
   21.4550   10.9720   25.3140 N   0  3  0  0  0  0  0  0  0  0  0  0
   21.7580   11.0360   26.2750 H   0  0  0  0  0  0  0  0  0  0  0  0
   20.9190   11.7220   24.9030 H   0  0  0  0  0  0  0  0  0  0  0  0
   22.4850    8.9940   25.3010 N   0  0  0  0  0  0  0  0  0  0  0  0
   17.7430   10.8630   20.4100 C   0  0  0  0  0  0  0  0  0  0  0  0
   17.0210   11.6460   21.3940 C   0  0  0  0  0  0  0  0  0  0  0  0
   15.8290   11.1470   21.9460 C   0  0  0  0  0  0  0  0  0  0  0  0
   15.3590    9.8640   21.5910 C   0  0  0  0  0  0  0  0  0  0  0  0
   16.0540    9.0850   20.6400 C   0  0  0  0  0  0  0  0  0  0  0  0
   17.2550    9.5600   20.0670 C   0  0  0  0  0  0  0  0  0  0  0  0
   18.0240    8.5130   18.9160 Cl  0  0  0  0  0  0  0  0  0  0  0  0
   30.8360   10.6760   21.9080 H   0  0  0  0  0  0  0  0  0  0  0  0
   29.7850    9.2420   21.9870 H   0  0  0  0  0  0  0  0  0  0  0  0
   29.4080   10.6770   22.9700 H   0  0  0  0  0  0  0  0  0  0  0  0
   29.3990   10.5310   19.9560 H   0  0  0  0  0  0  0  0  0  0  0  0
   29.0220   11.9660   20.9390 H   0  0  0  0  0  0  0  0  0  0  0  0
   27.0510   10.9060   21.8220 H   0  0  0  0  0  0  0  0  0  0  0  0
   27.4620    9.3760   21.0100 H   0  0  0  0  0  0  0  0  0  0  0  0
   25.4130   10.9580   17.4990 H   0  0  0  0  0  0  0  0  0  0  0  0
   22.9760   11.3640   17.4310 H   0  0  0  0  0  0  0  0  0  0  0  0
   22.9400   11.6300   21.7220 H   0  0  0  0  0  0  0  0  0  0  0  0
   25.3550   11.2250   21.7970 H   0  0  0  0  0  0  0  0  0  0  0  0
   21.2120   13.3330   18.0270 H   0  0  0  0  0  0  0  0  0  0  0  0
   21.3950    9.2590   20.9210 H   0  0  0  0  0  0  0  0  0  0  0  0
   19.6440    9.1640   21.2310 H   0  0  0  0  0  0  0  0  0  0  0  0
   22.7180    9.1920   26.2640 H   0  0  0  0  0  0  0  0  0  0  0  0
   22.7880    8.1300   24.8760 H   0  0  0  0  0  0  0  0  0  0  0  0
   17.3980   12.6100   21.7020 H   0  0  0  0  0  0  0  0  0  0  0  0
   15.2690   11.7490   22.6460 H   0  0  0  0  0  0  0  0  0  0  0  0
   14.4620    9.4760   22.0500 H   0  0  0  0  0  0  0  0  0  0  0  0
   15.6650    8.1200   20.3490 H   0  0  0  0  0  0  0  0  0  0  0  0
  1  2  1  0  0  0  0
  1 33  1  0  0  0  0
  1 34  1  0  0  0  0
  1 35  1  0  0  0  0
  2  3  1  0  0  0  0
  2 36  1  0  0  0  0
  2 37  1  0  0  0  0
  3  4  1  0  0  0  0
  3 38  1  0  0  0  0
  3 39  1  0  0  0  0
  4  5  1  0  0  0  0
  5  6  1  0  0  0  0
  5 10  2  0  0  0  0
  6  7  2  0  0  0  0
  6 40  1  0  0  0  0
  7  8  1  0  0  0  0
  7 41  1  0  0  0  0
  8  9  2  0  0  0  0
  8 11  1  0  0  0  0
  9 10  1  0  0  0  0
  9 42  1  0  0  0  0
 10 43  1  0  0  0  0
 11 12  2  0  0  0  0
 11 15  1  0  0  0  0
 12 13  1  0  0  0  0
 12 44  1  0  0  0  0
 13 14  1  0  0  0  0
 14 15  2  0  0  0  0
 14 26  1  0  0  0  0
 15 16  1  0  0  0  0
 16 17  1  0  0  0  0
 16 45  1  0  0  0  0
 16 46  1  0  0  0  0
 17 18  2  0  0  0  0
 17 19  1  0  0  0  0
 19 20  1  0  0  0  0
 19 21  1  0  0  0  0
 21 22  2  0  0  0  0
 21 25  1  0  0  0  0
 22 23  1  0  0  0  0
 22 24  1  0  0  0  0
 25 47  1  0  0  0  0
 25 48  1  0  0  0  0
 26 27  1  0  0  0  0
 26 31  2  0  0  0  0
 27 28  2  0  0  0  0
 27 49  1  0  0  0  0
 28 29  1  0  0  0  0
 28 50  1  0  0  0  0
 29 30  2  0  0  0  0
 29 51  1  0  0  0  0
 30 31  1  0  0  0  0
 30 52  1  0  0  0  0
 31 32  1  0  0  0  0
M  CHG  1  22   1
M  END
>  <PARENT_CMPD_ID>
2QU3

>  <STANDARD_TYPE>
IC50

>  <RELATION>
=

>  <STANDARD_VALUE>
0.58999997

>  <STANDARD_UNITS>
uM

>  <COMPOUND_KEY>
6g

>  <PUBMED_ID>
17761418

>  <JOURNAL>
Bioorg.Med.Chem.Lett.

>  <YEAR>
2007

>  <VOLUME>
17

>  <FIRST_PAGE>
5353

>  <Company>
Wyeth

>  <Resolution>
2

>  <idx>
133

>  <Model>
Train

>  <target>
6.2291479

>  <des_pred_mlr>
6.4516902

>  <RF_Canvas>
6.2693439

>  <DNN_Canvas>
6.1555829

>  <pred_CoMFA>
5.0251002

>  <pred_COMSIA>
6.3829002

>  <pred_abm5>
5.7194114

>  <pred_ff8>
5.8858027

>  <pred_gau6>
5.4451871

>  <CID>
BACE_133

>  <active>
0

>  <des_class_bayes>
0

>  <maacs_class_bayes>
0

>  <radial_class_bayes>
0

>  <dend_class_bayes>
0

>  <molprint_class_bayes>
0

>  <RF_canvas>
0

>  <DNN_canvas>
0

$$$$
3DV1_1366
  MOE2015           3D

 76 76  0  0  1  0  0  0  0  0999 V2000
   24.5590   11.7370   23.3950 N   0  0  0  0  0  0  0  0  0  0  0  0
   23.3660   11.1140   22.8390 C   0  0  3  0  0  0  0  0  0  0  0  0
   23.8530   10.1260   21.7340 C   0  0  0  0  0  0  0  0  0  0  0  0
   24.4240   10.9600   20.5440 C   0  0  3  0  0  0  0  0  0  0  0  0
   25.2060   10.0420   19.5630 C   0  0  0  0  0  0  0  0  0  0  0  0
   26.5900    9.6940   20.1380 C   0  0  0  0  0  0  0  0  0  0  0  0
   27.5860   10.7590   19.6870 C   0  0  0  0  0  0  0  0  0  0  0  0
   29.0240   10.4420   20.2140 C   0  0  0  0  0  0  0  0  0  0  0  0
   29.3010   11.2200   21.5190 C   0  0  0  0  0  0  0  0  0  0  0  0
   29.0840   12.7000   21.1860 C   0  0  0  0  0  0  0  0  0  0  0  0
   29.3170   13.6040   22.3770 C   0  0  0  0  0  0  0  0  0  0  0  0
   28.2490   13.5180   23.4390 C   0  0  0  0  0  0  0  0  0  0  0  0
   26.9420   13.6070   23.0550 N   0  0  0  0  0  0  0  0  0  0  0  0
   25.8940   13.5950   24.0980 C   0  0  3  0  0  0  0  0  0  0  0  0
   24.6060   13.0800   23.5410 C   0  0  0  0  0  0  0  0  0  0  0  0
   23.6750   13.8330   23.2530 O   0  0  0  0  0  0  0  0  0  0  0  0
   25.7460   15.0570   24.5880 C   0  0  0  0  0  0  0  0  0  0  0  0
   28.6170   13.3770   24.5960 O   0  0  0  0  0  0  0  0  0  0  0  0
   23.2190   11.5750   19.7770 C   0  0  0  0  0  0  0  0  0  0  0  0
   22.5600   10.3830   23.9350 C   0  0  3  0  0  0  0  0  0  0  0  0
   23.3450    9.3200   24.4980 O   0  0  0  0  0  0  0  0  0  0  0  0
   22.1920   11.3520   25.0930 C   0  0  0  0  0  0  0  0  0  0  0  0
   21.0050   10.7450   25.8620 C   0  0  3  0  0  0  0  0  0  0  0  0
   21.0200   11.2500   27.3210 C   0  0  0  0  0  0  0  0  0  0  0  0
   19.6840   11.2430   25.2960 C   0  0  0  0  0  0  0  0  0  0  0  0
   19.6140   12.3630   24.8160 O   0  0  0  0  0  0  0  0  0  0  0  0
   18.6570   10.3940   25.3600 N   0  0  0  0  0  0  0  0  0  0  0  0
   17.3410   10.7940   24.8780 C   0  0  0  0  0  0  0  0  0  0  0  0
   16.4080    9.5750   25.0390 C   0  0  0  0  0  0  0  0  0  0  0  0
   14.9230    9.9490   24.7860 C   0  0  0  0  0  0  0  0  0  0  0  0
   14.6840   10.2490   23.2890 C   0  0  0  0  0  0  0  0  0  0  0  0
   25.3470   11.1690   23.6700 H   0  0  0  0  0  0  0  0  0  0  0  0
   22.6950   11.8620   22.4170 H   0  0  0  0  0  0  0  0  0  0  0  0
   23.0170    9.5180   21.3890 H   0  0  0  0  0  0  0  0  0  0  0  0
   24.6320    9.4780   22.1370 H   0  0  0  0  0  0  0  0  0  0  0  0
   25.0960   11.7290   20.9260 H   0  0  0  0  0  0  0  0  0  0  0  0
   25.3320   10.5590   18.6120 H   0  0  0  0  0  0  0  0  0  0  0  0
   24.6420    9.1230   19.4050 H   0  0  0  0  0  0  0  0  0  0  0  0
   26.9050    8.7170   19.7710 H   0  0  0  0  0  0  0  0  0  0  0  0
   26.5410    9.6740   21.2270 H   0  0  0  0  0  0  0  0  0  0  0  0
   27.2710   11.7280   20.0730 H   0  0  0  0  0  0  0  0  0  0  0  0
   27.6050   10.7910   18.5980 H   0  0  0  0  0  0  0  0  0  0  0  0
   29.7550   10.7330   19.4600 H   0  0  0  0  0  0  0  0  0  0  0  0
   29.1080    9.3730   20.4080 H   0  0  0  0  0  0  0  0  0  0  0  0
   30.3260   11.0530   21.8490 H   0  0  0  0  0  0  0  0  0  0  0  0
   28.6120   10.9030   22.3020 H   0  0  0  0  0  0  0  0  0  0  0  0
   28.0590   12.8340   20.8410 H   0  0  0  0  0  0  0  0  0  0  0  0
   29.7740   12.9840   20.3920 H   0  0  0  0  0  0  0  0  0  0  0  0
   29.3620   14.6330   22.0210 H   0  0  0  0  0  0  0  0  0  0  0  0
   30.2710   13.3340   22.8290 H   0  0  0  0  0  0  0  0  0  0  0  0
   26.6960   13.6800   22.0780 H   0  0  0  0  0  0  0  0  0  0  0  0
   26.1630   12.9360   24.9240 H   0  0  0  0  0  0  0  0  0  0  0  0
   25.4770   15.6960   23.7470 H   0  0  0  0  0  0  0  0  0  0  0  0
   26.6910   15.3950   25.0140 H   0  0  0  0  0  0  0  0  0  0  0  0
   24.9660   15.1080   25.3480 H   0  0  0  0  0  0  0  0  0  0  0  0
   22.5740   10.7750   19.4130 H   0  0  0  0  0  0  0  0  0  0  0  0
   23.5850   12.1590   18.9330 H   0  0  0  0  0  0  0  0  0  0  0  0
   22.6530   12.2220   20.4480 H   0  0  0  0  0  0  0  0  0  0  0  0
   21.6540    9.9940   23.4690 H   0  0  0  0  0  0  0  0  0  0  0  0
   24.1260    9.7140   24.8930 H   0  0  0  0  0  0  0  0  0  0  0  0
   21.9120   12.3240   24.6870 H   0  0  0  0  0  0  0  0  0  0  0  0
   23.0450   11.4700   25.7620 H   0  0  0  0  0  0  0  0  0  0  0  0
   21.0950    9.6610   25.7860 H   0  0  0  0  0  0  0  0  0  0  0  0
   20.9270   12.3360   27.3310 H   0  0  0  0  0  0  0  0  0  0  0  0
   21.9580   10.9620   27.7960 H   0  0  0  0  0  0  0  0  0  0  0  0
   20.1860   10.8090   27.8670 H   0  0  0  0  0  0  0  0  0  0  0  0
   18.7920    9.4700   25.7440 H   0  0  0  0  0  0  0  0  0  0  0  0
   17.3990   11.0840   23.8290 H   0  0  0  0  0  0  0  0  0  0  0  0
   16.9660   11.6320   25.4660 H   0  0  0  0  0  0  0  0  0  0  0  0
   16.5060    9.1870   26.0530 H   0  0  0  0  0  0  0  0  0  0  0  0
   16.7050    8.8070   24.3250 H   0  0  0  0  0  0  0  0  0  0  0  0
   14.6710   10.8320   25.3730 H   0  0  0  0  0  0  0  0  0  0  0  0
   14.2870    9.1170   25.0900 H   0  0  0  0  0  0  0  0  0  0  0  0
   15.3170   11.0800   22.9790 H   0  0  0  0  0  0  0  0  0  0  0  0
   13.6380   10.5120   23.1340 H   0  0  0  0  0  0  0  0  0  0  0  0
   14.9280    9.3660   22.6980 H   0  0  0  0  0  0  0  0  0  0  0  0
  1  2  1  0  0  0  0
  1 15  1  0  0  0  0
  1 32  1  0  0  0  0
  2  3  1  0  0  0  0
  2 20  1  0  0  0  0
  2 33  1  0  0  0  0
  3  4  1  0  0  0  0
  3 34  1  0  0  0  0
  3 35  1  0  0  0  0
  4  5  1  0  0  0  0
  4 19  1  0  0  0  0
  4 36  1  0  0  0  0
  5  6  1  0  0  0  0
  5 37  1  0  0  0  0
  5 38  1  0  0  0  0
  6  7  1  0  0  0  0
  6 39  1  0  0  0  0
  6 40  1  0  0  0  0
  7  8  1  0  0  0  0
  7 41  1  0  0  0  0
  7 42  1  0  0  0  0
  8  9  1  0  0  0  0
  8 43  1  0  0  0  0
  8 44  1  0  0  0  0
  9 10  1  0  0  0  0
  9 45  1  0  0  0  0
  9 46  1  0  0  0  0
 10 11  1  0  0  0  0
 10 47  1  0  0  0  0
 10 48  1  0  0  0  0
 11 12  1  0  0  0  0
 11 49  1  0  0  0  0
 11 50  1  0  0  0  0
 12 13  1  0  0  0  0
 12 18  2  0  0  0  0
 13 14  1  0  0  0  0
 13 51  1  0  0  0  0
 14 15  1  0  0  0  0
 14 17  1  0  0  0  0
 14 52  1  0  0  0  0
 15 16  2  0  0  0  0
 17 53  1  0  0  0  0
 17 54  1  0  0  0  0
 17 55  1  0  0  0  0
 19 56  1  0  0  0  0
 19 57  1  0  0  0  0
 19 58  1  0  0  0  0
 20 21  1  0  0  0  0
 20 22  1  0  0  0  0
 20 59  1  0  0  0  0
 21 60  1  0  0  0  0
 22 23  1  0  0  0  0
 22 61  1  0  0  0  0
 22 62  1  0  0  0  0
 23 24  1  0  0  0  0
 23 25  1  0  0  0  0
 23 63  1  0  0  0  0
 24 64  1  0  0  0  0
 24 65  1  0  0  0  0
 24 66  1  0  0  0  0
 25 26  2  0  0  0  0
 25 27  1  0  0  0  0
 27 28  1  0  0  0  0
 27 67  1  0  0  0  0
 28 29  1  0  0  0  0
 28 68  1  0  0  0  0
 28 69  1  0  0  0  0
 29 30  1  0  0  0  0
 29 70  1  0  0  0  0
 29 71  1  0  0  0  0
 30 31  1  0  0  0  0
 30 72  1  0  0  0  0
 30 73  1  0  0  0  0
 31 74  1  0  0  0  0
 31 75  1  0  0  0  0
 31 76  1  0  0  0  0
M  END
>  <PARENT_CMPD_ID>
3DV1

>  <STANDARD_TYPE>
IC50

>  <RELATION>
=

>  <STANDARD_VALUE>
0.58999997

>  <STANDARD_UNITS>
uM

>  <COMPOUND_KEY>
2a

>  <PUBMED_ID>
19195887

>  <JOURNAL>
Bioorg.Med.Chem.Lett.

>  <YEAR>
2009

>  <VOLUME>
19

>  <FIRST_PAGE>
1366

>  <Company>
Novartis

>  <Resolution>
2.0999999

>  <idx>
134

>  <Model>
Train

>  <target>
6.2291479

>  <des_pred_mlr>
6.3681898

>  <RF_Canvas>
6.3599038

>  <DNN_Canvas>
5.9915195

>  <pred_CoMFA>
5.8367

>  <pred_COMSIA>
5.6371999

>  <pred_abm5>
5.8503561

>  <pred_ff8>
6.0159864

>  <pred_gau6>
5.5442309

>  <CID>
BACE_134

>  <active>
0

>  <des_class_bayes>
1

>  <maacs_class_bayes>
0

>  <radial_class_bayes>
0

>  <dend_class_bayes>
0

>  <molprint_class_bayes>
1

>  <RF_canvas>
0

>  <DNN_canvas>
0

$$$$
2ZE1_1063
  MOE2015           3D

 57 60  0  0  0  0  0  0  0  0999 V2000
   15.2020    9.4660   21.0870 C   0  0  0  0  0  0  0  0  0  0  0  0
   15.5460   10.7650   21.4800 C   0  0  0  0  0  0  0  0  0  0  0  0
   16.7550   11.3360   21.0480 C   0  0  0  0  0  0  0  0  0  0  0  0
   17.6230   10.6100   20.2100 C   0  0  0  0  0  0  0  0  0  0  0  0
   17.2630    9.3040   19.8200 C   0  0  0  0  0  0  0  0  0  0  0  0
   16.0580    8.7330   20.2570 C   0  0  0  0  0  0  0  0  0  0  0  0
   18.8860   11.2050   19.7650 C   0  0  0  0  0  0  0  0  0  0  0  0
   19.1010   12.2610   18.8920 C   0  0  0  0  0  0  0  0  0  0  0  0
   20.4990   12.4720   18.7790 C   0  0  0  0  0  0  0  0  0  0  0  0
   21.1430   11.5310   19.5700 C   0  0  0  0  0  0  0  0  0  0  0  0
   20.1400   10.7690   20.1660 N   0  0  0  0  0  0  0  0  0  0  0  0
   20.3770    9.6740   21.1000 C   0  0  0  0  0  0  0  0  0  0  0  0
   20.6470   10.2810   22.4490 C   0  0  0  0  0  0  0  0  0  0  0  0
   20.2160   11.3670   22.8180 O   0  0  0  0  0  0  0  0  0  0  0  0
   21.4910    9.4600   23.2710 N   0  0  0  0  0  0  0  0  0  0  0  0
   21.8120    8.5850   22.8810 H   0  0  0  0  0  0  0  0  0  0  0  0
   21.9020    9.7760   24.5640 C   0  0  0  0  0  0  0  0  0  0  0  0
   21.4920   10.9700   25.1400 N   0  3  0  0  0  0  0  0  0  0  0  0
   21.7750   11.2000   26.0820 H   0  0  0  0  0  0  0  0  0  0  0  0
   20.9100   11.6090   24.6170 H   0  0  0  0  0  0  0  0  0  0  0  0
   22.6960    8.9070   25.2820 N   0  0  0  0  0  0  0  0  0  0  0  0
   22.5860   11.3340   19.8020 C   0  0  0  0  0  0  0  0  0  0  0  0
   23.4460   10.7480   18.8540 C   0  0  0  0  0  0  0  0  0  0  0  0
   24.8170   10.5740   19.1390 C   0  0  0  0  0  0  0  0  0  0  0  0
   25.3360   10.9770   20.3840 C   0  0  0  0  0  0  0  0  0  0  0  0
   24.4710   11.5620   21.3190 C   0  0  0  0  0  0  0  0  0  0  0  0
   23.1170   11.7340   21.0370 C   0  0  0  0  0  0  0  0  0  0  0  0
   26.6840   10.9010   20.8220 N   0  0  0  0  0  0  0  0  0  0  0  0
   27.8350   11.1780   20.0890 C   0  0  0  0  0  0  0  0  0  0  0  0
   27.9150   11.5180   18.9170 O   0  0  0  0  0  0  0  0  0  0  0  0
   29.1140   11.0530   20.8300 C   0  0  0  0  0  0  0  0  0  0  0  0
   30.1960   11.9100   20.5510 C   0  0  0  0  0  0  0  0  0  0  0  0
   31.3920   11.7870   21.2680 C   0  0  0  0  0  0  0  0  0  0  0  0
   31.5110   10.8100   22.2610 C   0  0  0  0  0  0  0  0  0  0  0  0
   30.4270    9.9690   22.5340 C   0  0  0  0  0  0  0  0  0  0  0  0
   29.2290   10.0760   21.8300 C   0  0  0  0  0  0  0  0  0  0  0  0
   30.5720    8.6480   23.8730 Br  0  0  0  0  0  0  0  0  0  0  0  0
   14.2740    9.0290   21.4250 H   0  0  0  0  0  0  0  0  0  0  0  0
   14.8810   11.3290   22.1170 H   0  0  0  0  0  0  0  0  0  0  0  0
   17.0200   12.3360   21.3600 H   0  0  0  0  0  0  0  0  0  0  0  0
   17.9210    8.7370   19.1780 H   0  0  0  0  0  0  0  0  0  0  0  0
   15.7920    7.7310   19.9540 H   0  0  0  0  0  0  0  0  0  0  0  0
   18.3340   12.8270   18.3840 H   0  0  0  0  0  0  0  0  0  0  0  0
   20.9790   13.2330   18.1810 H   0  0  0  0  0  0  0  0  0  0  0  0
   21.2380    9.0880   20.7760 H   0  0  0  0  0  0  0  0  0  0  0  0
   19.4980    9.0310   21.1500 H   0  0  0  0  0  0  0  0  0  0  0  0
   22.9770    9.1410   26.2240 H   0  0  0  0  0  0  0  0  0  0  0  0
   22.9970    8.0370   24.8660 H   0  0  0  0  0  0  0  0  0  0  0  0
   23.0530   10.4290   17.9000 H   0  0  0  0  0  0  0  0  0  0  0  0
   25.4690   10.1310   18.4010 H   0  0  0  0  0  0  0  0  0  0  0  0
   24.8600   11.8850   22.2730 H   0  0  0  0  0  0  0  0  0  0  0  0
   22.4700   12.1800   21.7770 H   0  0  0  0  0  0  0  0  0  0  0  0
   26.8250   10.6120   21.7790 H   0  0  0  0  0  0  0  0  0  0  0  0
   30.1030   12.6630   19.7830 H   0  0  0  0  0  0  0  0  0  0  0  0
   32.2210   12.4450   21.0550 H   0  0  0  0  0  0  0  0  0  0  0  0
   32.4330   10.7050   22.8130 H   0  0  0  0  0  0  0  0  0  0  0  0
   28.4020    9.4170   22.0510 H   0  0  0  0  0  0  0  0  0  0  0  0
  1  2  1  0  0  0  0
  1  6  2  0  0  0  0
  1 38  1  0  0  0  0
  2  3  2  0  0  0  0
  2 39  1  0  0  0  0
  3  4  1  0  0  0  0
  3 40  1  0  0  0  0
  4  5  2  0  0  0  0
  4  7  1  0  0  0  0
  5  6  1  0  0  0  0
  5 41  1  0  0  0  0
  6 42  1  0  0  0  0
  7  8  2  0  0  0  0
  7 11  1  0  0  0  0
  8  9  1  0  0  0  0
  8 43  1  0  0  0  0
  9 10  2  0  0  0  0
  9 44  1  0  0  0  0
 10 11  1  0  0  0  0
 10 22  1  0  0  0  0
 11 12  1  0  0  0  0
 12 13  1  0  0  0  0
 12 45  1  0  0  0  0
 12 46  1  0  0  0  0
 13 14  2  0  0  0  0
 13 15  1  0  0  0  0
 15 16  1  0  0  0  0
 15 17  1  0  0  0  0
 17 18  2  0  0  0  0
 17 21  1  0  0  0  0
 18 19  1  0  0  0  0
 18 20  1  0  0  0  0
 21 47  1  0  0  0  0
 21 48  1  0  0  0  0
 22 23  1  0  0  0  0
 22 27  2  0  0  0  0
 23 24  2  0  0  0  0
 23 49  1  0  0  0  0
 24 25  1  0  0  0  0
 24 50  1  0  0  0  0
 25 26  2  0  0  0  0
 25 28  1  0  0  0  0
 26 27  1  0  0  0  0
 26 51  1  0  0  0  0
 27 52  1  0  0  0  0
 28 29  1  0  0  0  0
 28 53  1  0  0  0  0
 29 30  2  0  0  0  0
 29 31  1  0  0  0  0
 31 32  1  0  0  0  0
 31 36  2  0  0  0  0
 32 33  2  0  0  0  0
 32 54  1  0  0  0  0
 33 34  1  0  0  0  0
 33 55  1  0  0  0  0
 34 35  2  0  0  0  0
 34 56  1  0  0  0  0
 35 36  1  0  0  0  0
 35 37  1  0  0  0  0
 36 57  1  0  0  0  0
M  CHG  1  18   1
M  END
>  <PARENT_CMPD_ID>
2ZE1

>  <STANDARD_TYPE>
IC50

>  <RELATION>
=

>  <STANDARD_VALUE>
0.60000002

>  <STANDARD_UNITS>
uM

>  <COMPOUND_KEY>
6g

>  <PUBMED_ID>
18162398

>  <JOURNAL>
Bioorg.Med.Chem.Lett.

>  <YEAR>
2008

>  <VOLUME>
18

>  <FIRST_PAGE>
1063

>  <Company>
Wyeth

>  <Resolution>
2.2

>  <idx>
135

>  <Model>
Train

>  <target>
6.221849

>  <des_pred_mlr>
6.7694001

>  <RF_Canvas>
6.3363314

>  <DNN_Canvas>
6.0938044

>  <pred_CoMFA>
6.1068001

>  <pred_COMSIA>
6.8508

>  <pred_abm5>
5.9845772

>  <pred_ff8>
6.4390445

>  <pred_gau6>
6.1503067

>  <CID>
BACE_135

>  <active>
0

>  <des_class_bayes>
1

>  <maacs_class_bayes>
0

>  <radial_class_bayes>
0

>  <dend_class_bayes>
0

>  <molprint_class_bayes>
0

>  <RF_canvas>
0

>  <DNN_canvas>
0

$$$$
2VIZ_1011
  MOE2015           3D

 89 92  0  0  1  0  0  0  0  0999 V2000
   27.2660   14.9510   24.6020 C   0  0  0  0  0  0  0  0  0  0  0  0
   25.9530   14.4140   24.4660 C   0  0  0  0  0  0  0  0  0  0  0  0
   25.6850   13.4250   23.4960 C   0  0  0  0  0  0  0  0  0  0  0  0
   26.7420   12.9740   22.6530 C   0  0  0  0  0  0  0  0  0  0  0  0
   28.0680   13.4980   22.7770 C   0  0  0  0  0  0  0  0  0  0  0  0
   28.3020   14.4840   23.7550 C   0  0  0  0  0  0  0  0  0  0  0  0
   24.3550   12.8410   23.2850 C   0  0  0  0  0  0  0  0  0  0  0  0
   24.3040   11.4920   23.0680 N   0  0  0  0  0  0  0  0  0  0  0  0
   23.3310   13.5320   23.2610 O   0  0  0  0  0  0  0  0  0  0  0  0
   23.0310   10.8010   22.7710 C   0  0  3  0  0  0  0  0  0  0  0  0
   23.2650    9.8570   21.5580 C   0  0  0  0  0  0  0  0  0  0  0  0
   22.5030   10.0400   24.0050 C   0  0  3  0  0  0  0  0  0  0  0  0
   21.3420    9.3080   23.6550 O   0  0  0  0  0  0  0  0  0  0  0  0
   24.1500   10.4510   20.4690 C   0  0  0  0  0  0  0  0  0  0  0  0
   22.1280   10.9950   25.1430 C   0  0  0  0  0  0  0  0  0  0  0  0
   21.2900   10.3160   26.1210 N   0  3  0  0  0  0  0  0  0  0  0  0
   20.2660   11.0100   26.9230 C   0  0  3  0  0  0  0  0  0  0  0  0
   19.2180   11.5920   25.9520 C   0  0  0  0  0  0  0  0  0  0  0  0
   18.2870   10.6960   25.5830 N   0  0  0  0  0  0  0  0  0  0  0  0
   19.2730   12.7600   25.5680 O   0  0  0  0  0  0  0  0  0  0  0  0
   17.2040   11.0260   24.6560 C   0  0  0  0  0  0  0  0  0  0  0  0
   20.9070   12.1320   27.7730 C   0  0  0  0  0  0  0  0  0  0  0  0
   15.9260   11.4050   25.4450 C   0  0  0  0  0  0  0  0  0  0  0  0
   14.7700   11.7490   24.4750 C   0  0  0  0  0  0  0  0  0  0  0  0
   14.4960   10.5910   23.4730 C   0  0  0  0  0  0  0  0  0  0  0  0
   15.7830   10.1490   22.7280 C   0  0  0  0  0  0  0  0  0  0  0  0
   16.9310    9.8240   23.7160 C   0  0  0  0  0  0  0  0  0  0  0  0
   25.2550    9.7070   19.9850 C   0  0  0  0  0  0  0  0  0  0  0  0
   26.1000   10.2360   18.9720 C   0  0  0  0  0  0  0  0  0  0  0  0
   25.8450   11.5210   18.4320 C   0  0  0  0  0  0  0  0  0  0  0  0
   24.7430   12.2750   18.9040 C   0  0  0  0  0  0  0  0  0  0  0  0
   23.9010   11.7420   19.9140 C   0  0  0  0  0  0  0  0  0  0  0  0
   29.0880   13.0140   21.9110 O   0  0  0  0  0  0  0  0  0  0  0  0
   28.8760   11.8090   21.1720 C   0  0  0  0  0  0  0  0  0  0  0  0
   29.3580   10.6210   22.0080 C   0  0  0  0  0  0  0  0  0  0  0  0
   29.1370    9.2970   21.2920 C   0  0  0  0  0  0  0  0  0  0  0  0
   27.5350   15.9220   25.5350 N   0  0  0  0  0  0  0  0  0  0  0  0
   26.7620   17.1670   25.5490 C   0  0  0  0  0  0  0  0  0  0  0  0
   27.3360   17.9930   26.6860 C   0  0  0  0  0  0  0  0  0  0  0  0
   28.4880   17.1880   27.2860 C   0  0  0  0  0  0  0  0  0  0  0  0
   28.5060   15.8870   26.4890 C   0  0  0  0  0  0  0  0  0  0  0  0
   29.3030   14.9820   26.7110 O   0  0  0  0  0  0  0  0  0  0  0  0
   25.1590   14.7660   25.1080 H   0  0  0  0  0  0  0  0  0  0  0  0
   26.5380   12.2220   21.9060 H   0  0  0  0  0  0  0  0  0  0  0  0
   29.2950   14.8940   23.8620 H   0  0  0  0  0  0  0  0  0  0  0  0
   25.1580   10.9540   23.1120 H   0  0  0  0  0  0  0  0  0  0  0  0
   22.2610   11.5290   22.5170 H   0  0  0  0  0  0  0  0  0  0  0  0
   22.2970    9.6170   21.1190 H   0  0  0  0  0  0  0  0  0  0  0  0
   23.7360    8.9430   21.9210 H   0  0  0  0  0  0  0  0  0  0  0  0
   23.3010    9.3780   24.3410 H   0  0  0  0  0  0  0  0  0  0  0  0
   20.6770    9.9380   23.3690 H   0  0  0  0  0  0  0  0  0  0  0  0
   21.5840   11.8460   24.7330 H   0  0  0  0  0  0  0  0  0  0  0  0
   23.0370   11.3460   25.6310 H   0  0  0  0  0  0  0  0  0  0  0  0
   21.9240    9.8940   26.7850 H   0  0  0  0  0  0  0  0  0  0  0  0
   20.8020    9.5920   25.6140 H   0  0  0  0  0  0  0  0  0  0  0  0
   19.7910   10.3120   27.6120 H   0  0  0  0  0  0  0  0  0  0  0  0
   18.3370    9.7600   25.9590 H   0  0  0  0  0  0  0  0  0  0  0  0
   17.4990   11.8820   24.0490 H   0  0  0  0  0  0  0  0  0  0  0  0
   21.3940   12.8530   27.1160 H   0  0  0  0  0  0  0  0  0  0  0  0
   21.6450   11.7000   28.4480 H   0  0  0  0  0  0  0  0  0  0  0  0
   20.1340   12.6340   28.3540 H   0  0  0  0  0  0  0  0  0  0  0  0
   16.1360   12.2710   26.0730 H   0  0  0  0  0  0  0  0  0  0  0  0
   15.6290   10.5640   26.0720 H   0  0  0  0  0  0  0  0  0  0  0  0
   15.0340   12.6460   23.9150 H   0  0  0  0  0  0  0  0  0  0  0  0
   13.8660   11.9360   25.0550 H   0  0  0  0  0  0  0  0  0  0  0  0
   13.7630   10.9270   22.7400 H   0  0  0  0  0  0  0  0  0  0  0  0
   14.0970    9.7380   24.0220 H   0  0  0  0  0  0  0  0  0  0  0  0
   16.1030   10.9540   22.0670 H   0  0  0  0  0  0  0  0  0  0  0  0
   15.5620    9.2600   22.1380 H   0  0  0  0  0  0  0  0  0  0  0  0
   16.6520    8.9570   24.3160 H   0  0  0  0  0  0  0  0  0  0  0  0
   17.8360    9.5990   23.1510 H   0  0  0  0  0  0  0  0  0  0  0  0
   25.4570    8.7270   20.3910 H   0  0  0  0  0  0  0  0  0  0  0  0
   26.9380    9.6570   18.6130 H   0  0  0  0  0  0  0  0  0  0  0  0
   26.4880   11.9240   17.6640 H   0  0  0  0  0  0  0  0  0  0  0  0
   24.5440   13.2550   18.4960 H   0  0  0  0  0  0  0  0  0  0  0  0
   23.0610   12.3210   20.2670 H   0  0  0  0  0  0  0  0  0  0  0  0
   29.4360   11.8500   20.2380 H   0  0  0  0  0  0  0  0  0  0  0  0
   27.8140   11.6960   20.9540 H   0  0  0  0  0  0  0  0  0  0  0  0
   28.8100   10.6080   22.9500 H   0  0  0  0  0  0  0  0  0  0  0  0
   30.4230   10.7400   22.2080 H   0  0  0  0  0  0  0  0  0  0  0  0
   28.0740    9.1680   21.0870 H   0  0  0  0  0  0  0  0  0  0  0  0
   29.4870    8.4800   21.9230 H   0  0  0  0  0  0  0  0  0  0  0  0
   29.6910    9.2950   20.3530 H   0  0  0  0  0  0  0  0  0  0  0  0
   25.7070   16.9580   25.7260 H   0  0  0  0  0  0  0  0  0  0  0  0
   26.8740   17.6950   24.6020 H   0  0  0  0  0  0  0  0  0  0  0  0
   26.5710   18.1720   27.4420 H   0  0  0  0  0  0  0  0  0  0  0  0
   27.7030   18.9470   26.3070 H   0  0  0  0  0  0  0  0  0  0  0  0
   28.3090   16.9890   28.3430 H   0  0  0  0  0  0  0  0  0  0  0  0
   29.4310   17.7220   27.1720 H   0  0  0  0  0  0  0  0  0  0  0  0
  1  2  1  0  0  0  0
  1  6  2  0  0  0  0
  1 37  1  0  0  0  0
  2  3  2  0  0  0  0
  2 43  1  0  0  0  0
  3  4  1  0  0  0  0
  3  7  1  0  0  0  0
  4  5  2  0  0  0  0
  4 44  1  0  0  0  0
  5  6  1  0  0  0  0
  5 33  1  0  0  0  0
  6 45  1  0  0  0  0
  7  8  1  0  0  0  0
  7  9  2  0  0  0  0
  8 10  1  0  0  0  0
  8 46  1  0  0  0  0
 10 11  1  0  0  0  0
 10 12  1  0  0  0  0
 10 47  1  0  0  0  0
 11 14  1  0  0  0  0
 11 48  1  0  0  0  0
 11 49  1  0  0  0  0
 12 13  1  0  0  0  0
 12 15  1  0  0  0  0
 12 50  1  0  0  0  0
 13 51  1  0  0  0  0
 14 28  1  0  0  0  0
 14 32  2  0  0  0  0
 15 16  1  0  0  0  0
 15 52  1  0  0  0  0
 15 53  1  0  0  0  0
 16 17  1  0  0  0  0
 16 54  1  0  0  0  0
 16 55  1  0  0  0  0
 17 18  1  0  0  0  0
 17 22  1  0  0  0  0
 17 56  1  0  0  0  0
 18 19  1  0  0  0  0
 18 20  2  0  0  0  0
 19 21  1  0  0  0  0
 19 57  1  0  0  0  0
 21 23  1  0  0  0  0
 21 27  1  0  0  0  0
 21 58  1  0  0  0  0
 22 59  1  0  0  0  0
 22 60  1  0  0  0  0
 22 61  1  0  0  0  0
 23 24  1  0  0  0  0
 23 62  1  0  0  0  0
 23 63  1  0  0  0  0
 24 25  1  0  0  0  0
 24 64  1  0  0  0  0
 24 65  1  0  0  0  0
 25 26  1  0  0  0  0
 25 66  1  0  0  0  0
 25 67  1  0  0  0  0
 26 27  1  0  0  0  0
 26 68  1  0  0  0  0
 26 69  1  0  0  0  0
 27 70  1  0  0  0  0
 27 71  1  0  0  0  0
 28 29  2  0  0  0  0
 28 72  1  0  0  0  0
 29 30  1  0  0  0  0
 29 73  1  0  0  0  0
 30 31  2  0  0  0  0
 30 74  1  0  0  0  0
 31 32  1  0  0  0  0
 31 75  1  0  0  0  0
 32 76  1  0  0  0  0
 33 34  1  0  0  0  0
 34 35  1  0  0  0  0
 34 77  1  0  0  0  0
 34 78  1  0  0  0  0
 35 36  1  0  0  0  0
 35 79  1  0  0  0  0
 35 80  1  0  0  0  0
 36 81  1  0  0  0  0
 36 82  1  0  0  0  0
 36 83  1  0  0  0  0
 37 38  1  0  0  0  0
 37 41  1  0  0  0  0
 38 39  1  0  0  0  0
 38 84  1  0  0  0  0
 38 85  1  0  0  0  0
 39 40  1  0  0  0  0
 39 86  1  0  0  0  0
 39 87  1  0  0  0  0
 40 41  1  0  0  0  0
 40 88  1  0  0  0  0
 40 89  1  0  0  0  0
 41 42  2  0  0  0  0
M  CHG  1  16   1
M  END
>  <PARENT_CMPD_ID>
2VIZ

>  <STANDARD_TYPE>
IC50

>  <RELATION>
=

>  <STANDARD_VALUE>
0.60500002

>  <STANDARD_UNITS>
uM

>  <COMPOUND_KEY>
21

>  <PUBMED_ID>
18171614

>  <JOURNAL>
Bioorg.Med.Chem.Lett.

>  <YEAR>
2008

>  <VOLUME>
18

>  <FIRST_PAGE>
1011

>  <Company>
GSK

>  <Resolution>
1.6

>  <idx>
136

>  <Model>
Train

>  <target>
6.2182446

>  <des_pred_mlr>
6.9632201

>  <RF_Canvas>
6.6111145

>  <DNN_Canvas>
6.9546013

>  <pred_CoMFA>
6.8407001

>  <pred_COMSIA>
7.7031999

>  <pred_abm5>
7.1391916

>  <pred_ff8>
7.2746425

>  <pred_gau6>
7.1386037

>  <CID>
BACE_136

>  <active>
0

>  <des_class_bayes>
1

>  <maacs_class_bayes>
0

>  <radial_class_bayes>
0

>  <dend_class_bayes>
0

>  <molprint_class_bayes>
0

>  <RF_canvas>
0

>  <DNN_canvas>
1

$$$$
3L5F_951
  MOE2015           3D

 56 58  0  0  1  0  0  0  0  0999 V2000
   21.9600   10.2240   23.8280 C   0  0  0  0  0  0  0  0  0  0  0  0
   21.9130   11.5670   23.9640 N   0  0  0  0  0  0  0  0  0  0  0  0
   20.9200   13.2590   22.7500 O   0  0  0  0  0  0  0  0  0  0  0  0
   21.1830   12.0750   22.9510 C   0  0  0  0  0  0  0  0  0  0  0  0
   21.2870    9.7500   22.7500 N   0  0  0  0  0  0  0  0  0  0  0  0
   21.2040    8.7830   22.4690 H   0  0  0  0  0  0  0  0  0  0  0  0
   20.7060   10.9060   22.0730 C   0  0  3  0  0  0  0  0  0  0  0  0
   22.6210    9.4550   24.6920 N   0  0  0  0  0  0  0  0  0  0  0  0
   22.6410    8.4530   24.5640 H   0  0  0  0  0  0  0  0  0  0  0  0
   19.1720   10.8610   22.0880 C   0  0  0  0  0  0  0  0  0  0  0  0
   22.6120   11.4270   20.3630 C   0  0  0  0  0  0  0  0  0  0  0  0
   23.6180   10.3560   20.7730 C   0  0  0  0  0  0  0  0  0  0  0  0
   25.0410   10.6400   20.3070 C   0  0  0  0  0  0  0  0  0  0  0  0
   25.0830   10.8790   18.8070 C   0  0  0  0  0  0  0  0  0  0  0  0
   24.2100   12.0480   18.4300 C   0  0  0  0  0  0  0  0  0  0  0  0
   22.7770   11.8270   18.8870 C   0  0  0  0  0  0  0  0  0  0  0  0
   21.1670   11.0070   20.6120 C   0  0  0  0  0  0  0  0  0  0  0  0
   18.5740   10.7920   23.4800 C   0  0  0  0  0  0  0  0  0  0  0  0
   17.0890   10.3940   23.4790 C   0  0  0  0  0  0  0  0  0  0  0  0
   16.5300   10.2330   24.8890 C   0  0  0  0  0  0  0  0  0  0  0  0
   15.0520    9.8590   24.9080 C   0  0  0  0  0  0  0  0  0  0  0  0
   14.2240   10.8530   24.1010 C   0  0  0  0  0  0  0  0  0  0  0  0
   14.7460   11.0080   22.6680 C   0  0  0  0  0  0  0  0  0  0  0  0
   16.2370   11.3480   22.6390 C   0  0  0  0  0  0  0  0  0  0  0  0
   22.5400   12.3360   25.0200 C   0  0  0  0  0  0  0  0  0  0  0  0
   18.8490    9.9810   21.5310 H   0  0  0  0  0  0  0  0  0  0  0  0
   18.7970   11.7590   21.5970 H   0  0  0  0  0  0  0  0  0  0  0  0
   22.8290   12.2880   20.9960 H   0  0  0  0  0  0  0  0  0  0  0  0
   23.3000    9.4040   20.3470 H   0  0  0  0  0  0  0  0  0  0  0  0
   23.6200   10.2850   21.8610 H   0  0  0  0  0  0  0  0  0  0  0  0
   25.6730    9.7860   20.5500 H   0  0  0  0  0  0  0  0  0  0  0  0
   25.4140   11.5260   20.8200 H   0  0  0  0  0  0  0  0  0  0  0  0
   24.7280    9.9860   18.2920 H   0  0  0  0  0  0  0  0  0  0  0  0
   26.1100   11.0870   18.5060 H   0  0  0  0  0  0  0  0  0  0  0  0
   24.2240   12.1690   17.3470 H   0  0  0  0  0  0  0  0  0  0  0  0
   24.5990   12.9500   18.9010 H   0  0  0  0  0  0  0  0  0  0  0  0
   22.2250   12.7530   18.7250 H   0  0  0  0  0  0  0  0  0  0  0  0
   22.3460   11.0360   18.2730 H   0  0  0  0  0  0  0  0  0  0  0  0
   20.5240   11.7340   20.1150 H   0  0  0  0  0  0  0  0  0  0  0  0
   21.0270   10.0270   20.1560 H   0  0  0  0  0  0  0  0  0  0  0  0
   18.6700   11.7720   23.9480 H   0  0  0  0  0  0  0  0  0  0  0  0
   19.1300   10.0560   24.0600 H   0  0  0  0  0  0  0  0  0  0  0  0
   17.0350    9.4140   23.0050 H   0  0  0  0  0  0  0  0  0  0  0  0
   16.6560   11.1760   25.4220 H   0  0  0  0  0  0  0  0  0  0  0  0
   17.0920    9.4500   25.3980 H   0  0  0  0  0  0  0  0  0  0  0  0
   14.6990    9.8560   25.9390 H   0  0  0  0  0  0  0  0  0  0  0  0
   14.9310    8.8640   24.4790 H   0  0  0  0  0  0  0  0  0  0  0  0
   14.2600   11.8240   24.5950 H   0  0  0  0  0  0  0  0  0  0  0  0
   13.1930   10.5030   24.0630 H   0  0  0  0  0  0  0  0  0  0  0  0
   14.1920   11.8070   22.1760 H   0  0  0  0  0  0  0  0  0  0  0  0
   14.5870   10.0720   22.1320 H   0  0  0  0  0  0  0  0  0  0  0  0
   16.5830   11.3030   21.6060 H   0  0  0  0  0  0  0  0  0  0  0  0
   16.3690   12.3600   23.0230 H   0  0  0  0  0  0  0  0  0  0  0  0
   23.0630   11.6620   25.6980 H   0  0  0  0  0  0  0  0  0  0  0  0
   21.7770   12.8860   25.5710 H   0  0  0  0  0  0  0  0  0  0  0  0
   23.2510   13.0380   24.5850 H   0  0  0  0  0  0  0  0  0  0  0  0
  1  2  1  0  0  0  0
  1  5  1  0  0  0  0
  1  8  2  0  0  0  0
  2  4  1  0  0  0  0
  2 25  1  0  0  0  0
  3  4  2  0  0  0  0
  4  7  1  0  0  0  0
  5  6  1  0  0  0  0
  5  7  1  0  0  0  0
  7 10  1  0  0  0  0
  7 17  1  0  0  0  0
  8  9  1  0  0  0  0
 10 18  1  0  0  0  0
 10 26  1  0  0  0  0
 10 27  1  0  0  0  0
 11 12  1  0  0  0  0
 11 16  1  0  0  0  0
 11 17  1  0  0  0  0
 11 28  1  0  0  0  0
 12 13  1  0  0  0  0
 12 29  1  0  0  0  0
 12 30  1  0  0  0  0
 13 14  1  0  0  0  0
 13 31  1  0  0  0  0
 13 32  1  0  0  0  0
 14 15  1  0  0  0  0
 14 33  1  0  0  0  0
 14 34  1  0  0  0  0
 15 16  1  0  0  0  0
 15 35  1  0  0  0  0
 15 36  1  0  0  0  0
 16 37  1  0  0  0  0
 16 38  1  0  0  0  0
 17 39  1  0  0  0  0
 17 40  1  0  0  0  0
 18 19  1  0  0  0  0
 18 41  1  0  0  0  0
 18 42  1  0  0  0  0
 19 20  1  0  0  0  0
 19 24  1  0  0  0  0
 19 43  1  0  0  0  0
 20 21  1  0  0  0  0
 20 44  1  0  0  0  0
 20 45  1  0  0  0  0
 21 22  1  0  0  0  0
 21 46  1  0  0  0  0
 21 47  1  0  0  0  0
 22 23  1  0  0  0  0
 22 48  1  0  0  0  0
 22 49  1  0  0  0  0
 23 24  1  0  0  0  0
 23 50  1  0  0  0  0
 23 51  1  0  0  0  0
 24 52  1  0  0  0  0
 24 53  1  0  0  0  0
 25 54  1  0  0  0  0
 25 55  1  0  0  0  0
 25 56  1  0  0  0  0
M  END
>  <PARENT_CMPD_ID>
3L5F

>  <STANDARD_TYPE>
IC50

>  <RELATION>
=

>  <STANDARD_VALUE>
0.60500002

>  <STANDARD_UNITS>
uM

>  <COMPOUND_KEY>
40

>  <PUBMED_ID>
20043696

>  <JOURNAL>
J.Med.Chem.

>  <YEAR>
2010

>  <VOLUME>
53

>  <FIRST_PAGE>
951

>  <Company>
Schering

>  <Resolution>
1.7

>  <idx>
137

>  <Model>
Train

>  <target>
6.2182446

>  <des_pred_mlr>
4.8357301

>  <RF_Canvas>
5.7425156

>  <DNN_Canvas>
5.6866894

>  <pred_CoMFA>
6.1227999

>  <pred_COMSIA>
6.2280998

>  <pred_abm5>
5.9616342

>  <pred_ff8>
4.6389775

>  <pred_gau6>
5.5984616

>  <CID>
BACE_137

>  <active>
0

>  <des_class_bayes>
0

>  <maacs_class_bayes>
0

>  <radial_class_bayes>
0

>  <dend_class_bayes>
0

>  <molprint_class_bayes>
0

>  <RF_canvas>
0

>  <DNN_canvas>
0

$$$$
4I0D_3075
  MOE2015           3D

 52 54  0  0  1  0  0  0  0  0999 V2000
   22.3600   13.2270   19.1030 C   0  0  0  0  0  0  0  0  0  0  0  0
   24.4210   13.4280   20.3930 C   0  0  0  0  0  0  0  0  0  0  0  0
   24.6970   14.6710   19.8340 C   0  0  0  0  0  0  0  0  0  0  0  0
   23.7910   15.2160   18.9250 C   0  0  0  0  0  0  0  0  0  0  0  0
   22.6660   14.4760   18.5660 C   0  0  0  0  0  0  0  0  0  0  0  0
   23.0320   11.3120   20.6420 C   0  0  0  0  0  0  0  0  0  0  0  0
   24.4090   10.6130   20.7190 C   0  0  0  0  0  0  0  0  0  0  0  0
   25.3190   12.7830   21.3770 C   0  0  0  0  0  0  0  0  0  0  0  0
   24.2040    9.2830   21.4420 C   0  0  0  0  0  0  0  0  0  0  0  0
   24.9430   10.3100   19.2890 C   0  0  0  0  0  0  0  0  0  0  0  0
   27.2280   13.8930   24.1750 C   0  0  0  0  0  0  0  0  0  0  0  0
   28.5910   13.5300   22.1080 C   0  0  0  0  0  0  0  0  0  0  0  0
   28.6380   12.7850   20.7930 C   0  0  0  0  0  0  0  0  0  0  0  0
   28.1550   13.3530   19.6170 C   0  0  0  0  0  0  0  0  0  0  0  0
   29.1470   11.3810   20.6700 C   0  0  0  0  0  0  0  0  0  0  0  0
   21.5190   15.1280   17.3790 Cl  0  0  0  0  0  0  0  0  0  0  0  0
   23.2310   12.6860   20.0370 C   0  0  0  0  0  0  0  0  0  0  0  0
   25.3090   11.4960   21.4790 N   0  3  0  0  0  0  0  0  0  0  0  0
   26.0790   13.6240   22.0900 N   0  0  0  0  0  0  0  0  0  0  0  0
   27.2540   13.1850   22.8450 C   0  0  3  0  0  0  0  0  0  0  0  0
   26.3930   14.7980   24.3880 O   0  0  0  0  0  0  0  0  0  0  0  0
   28.0980   13.6320   25.0270 O   0  5  0  0  0  0  0  0  0  0  0  0
   28.4110   12.1090   18.4670 S   0  0  0  0  0  0  0  0  0  0  0  0
   29.0780   10.8160   19.3660 C   0  0  0  0  0  0  0  0  0  0  0  0
   29.3700    9.8310   19.0320 H   0  0  0  0  0  0  0  0  0  0  0  0
   29.6680   10.7110   21.9400 C   0  0  0  0  0  0  0  0  0  0  0  0
   29.3400    9.2490   22.1900 C   0  0  0  0  0  0  0  0  0  0  0  0
   30.1500    8.7020   23.3770 C   0  0  0  0  0  0  0  0  0  0  0  0
   21.4700   12.6950   18.8000 H   0  0  0  0  0  0  0  0  0  0  0  0
   25.5970   15.2050   20.0990 H   0  0  0  0  0  0  0  0  0  0  0  0
   23.9590   16.1970   18.5050 H   0  0  0  0  0  0  0  0  0  0  0  0
   22.6100   11.4070   21.6430 H   0  0  0  0  0  0  0  0  0  0  0  0
   22.3560   10.7280   20.0170 H   0  0  0  0  0  0  0  0  0  0  0  0
   23.5350    8.6510   20.8580 H   0  0  0  0  0  0  0  0  0  0  0  0
   23.7660    9.4670   22.4230 H   0  0  0  0  0  0  0  0  0  0  0  0
   25.1650    8.7820   21.5610 H   0  0  0  0  0  0  0  0  0  0  0  0
   24.2430    9.6550   18.7710 H   0  0  0  0  0  0  0  0  0  0  0  0
   25.9140    9.8200   19.3600 H   0  0  0  0  0  0  0  0  0  0  0  0
   25.0460   11.2430   18.7350 H   0  0  0  0  0  0  0  0  0  0  0  0
   28.6390   14.6030   21.9220 H   0  0  0  0  0  0  0  0  0  0  0  0
   29.4370   13.2310   22.7270 H   0  0  0  0  0  0  0  0  0  0  0  0
   27.7260   14.3330   19.4670 H   0  0  0  0  0  0  0  0  0  0  0  0
   25.8310   14.6030   22.1080 H   0  0  0  0  0  0  0  0  0  0  0  0
   27.2160   12.1020   22.9590 H   0  0  0  0  0  0  0  0  0  0  0  0
   29.2720   11.2760   22.7840 H   0  0  0  0  0  0  0  0  0  0  0  0
   30.7550   10.7960   21.9230 H   0  0  0  0  0  0  0  0  0  0  0  0
   29.5800    8.6710   21.2970 H   0  0  0  0  0  0  0  0  0  0  0  0
   28.2770    9.1540   22.4090 H   0  0  0  0  0  0  0  0  0  0  0  0
   31.2150    8.7940   23.1640 H   0  0  0  0  0  0  0  0  0  0  0  0
   29.9010    7.6530   23.5340 H   0  0  0  0  0  0  0  0  0  0  0  0
   29.9090    9.2710   24.2750 H   0  0  0  0  0  0  0  0  0  0  0  0
   25.9600   11.0680   22.1210 H   0  0  0  0  0  0  0  0  0  0  0  0
  1  5  2  0  0  0  0
  1 17  1  0  0  0  0
  1 29  1  0  0  0  0
  2  3  1  0  0  0  0
  2  8  1  0  0  0  0
  2 17  2  0  0  0  0
  3  4  2  0  0  0  0
  3 30  1  0  0  0  0
  4  5  1  0  0  0  0
  4 31  1  0  0  0  0
  5 16  1  0  0  0  0
  6  7  1  0  0  0  0
  6 17  1  0  0  0  0
  6 32  1  0  0  0  0
  6 33  1  0  0  0  0
  7  9  1  0  0  0  0
  7 10  1  0  0  0  0
  7 18  1  0  0  0  0
  8 18  2  0  0  0  0
  8 19  1  0  0  0  0
  9 34  1  0  0  0  0
  9 35  1  0  0  0  0
  9 36  1  0  0  0  0
 10 37  1  0  0  0  0
 10 38  1  0  0  0  0
 10 39  1  0  0  0  0
 11 20  1  0  0  0  0
 11 21  2  0  0  0  0
 11 22  1  0  0  0  0
 12 13  1  0  0  0  0
 12 20  1  0  0  0  0
 12 40  1  0  0  0  0
 12 41  1  0  0  0  0
 13 14  2  0  0  0  0
 13 15  1  0  0  0  0
 14 23  1  0  0  0  0
 14 42  1  0  0  0  0
 15 24  2  0  0  0  0
 15 26  1  0  0  0  0
 18 52  1  0  0  0  0
 19 20  1  0  0  0  0
 19 43  1  0  0  0  0
 20 44  1  0  0  0  0
 23 24  1  0  0  0  0
 24 25  1  0  0  0  0
 26 27  1  0  0  0  0
 26 45  1  0  0  0  0
 26 46  1  0  0  0  0
 27 28  1  0  0  0  0
 27 47  1  0  0  0  0
 27 48  1  0  0  0  0
 28 49  1  0  0  0  0
 28 50  1  0  0  0  0
 28 51  1  0  0  0  0
M  CHG  1  18   1
M  CHG  1  22  -1
M  END
>  <PARENT_CMPD_ID>
4I0D

>  <STANDARD_TYPE>
IC50

>  <RELATION>
=

>  <STANDARD_VALUE>
0.61000001

>  <STANDARD_UNITS>
uM

>  <COMPOUND_KEY>
7g

>  <PUBMED_ID>
23570791

>  <JOURNAL>
Bioorg.Med.Chem.Lett.

>  <YEAR>
2013

>  <VOLUME>
23

>  <FIRST_PAGE>
3075

>  <Company>
Elan

>  <Resolution>
1.91

>  <idx>
138

>  <Model>
Train

>  <target>
6.2146702

>  <des_pred_mlr>
6.5439801

>  <RF_Canvas>
6.4020257

>  <DNN_Canvas>
6.1622262

>  <pred_CoMFA>
6.9046001

>  <pred_COMSIA>
6.4935999

>  <pred_abm5>
6.6399174

>  <pred_ff8>
5.480001

>  <pred_gau6>
6.428246

>  <CID>
BACE_138

>  <active>
0

>  <des_class_bayes>
0

>  <maacs_class_bayes>
0

>  <radial_class_bayes>
0

>  <dend_class_bayes>
0

>  <molprint_class_bayes>
0

>  <RF_canvas>
0

>  <DNN_canvas>
0

$$$$
4B72_4181
  MOE2015           3D

 50 54  0  0  1  0  0  0  0  0999 V2000
   22.0630   14.5910   25.3550 C   0  0  0  0  0  0  0  0  0  0  0  0
   22.0940   13.3760   24.4580 C   0  0  0  0  0  0  0  0  0  0  0  0
   22.3260   12.1720   24.8620 N   0  0  0  0  0  0  0  0  0  0  0  0
   22.3070   11.2330   23.8970 C   0  0  0  0  0  0  0  0  0  0  0  0
   22.0460   11.7210   22.6560 C   0  0  0  0  0  0  0  0  0  0  0  0
   21.8500   13.4000   22.7640 S   0  0  0  0  0  0  0  0  0  0  0  0
   22.0370   10.5710   21.6750 C   0  0  3  0  0  0  0  0  0  0  0  0
   22.3450    9.4100   22.5280 N   0  3  0  0  0  0  0  0  0  0  0  0
   22.4850    9.7790   23.7660 C   0  0  0  0  0  0  0  0  0  0  0  0
   22.7970    8.9590   24.8240 N   0  0  0  0  0  0  0  0  0  0  0  0
   20.6600   10.3850   21.0570 C   0  0  0  0  0  0  0  0  0  0  0  0
   19.7690   11.4520   20.8810 C   0  0  0  0  0  0  0  0  0  0  0  0
   18.5190   11.2350   20.2980 C   0  0  0  0  0  0  0  0  0  0  0  0
   18.0970    9.9370   19.9880 C   0  0  0  0  0  0  0  0  0  0  0  0
   18.9890    8.8520   20.1520 C   0  0  0  0  0  0  0  0  0  0  0  0
   20.2510    9.0960   20.7020 C   0  0  0  0  0  0  0  0  0  0  0  0
   16.8700    9.7590   19.4410 O   0  0  0  0  0  0  0  0  0  0  0  0
   16.1730    8.5050   19.5710 C   0  0  0  0  0  0  0  0  0  0  0  0
   23.1170   10.8080   20.6140 C   0  0  0  0  0  0  0  0  0  0  0  0
   22.8060   11.2000   19.3050 C   0  0  0  0  0  0  0  0  0  0  0  0
   23.8120   11.4240   18.3630 C   0  0  0  0  0  0  0  0  0  0  0  0
   25.1460   11.3030   18.7250 C   0  0  0  0  0  0  0  0  0  0  0  0
   25.4700   10.9000   20.0330 C   0  0  0  0  0  0  0  0  0  0  0  0
   24.4470   10.7110   20.9740 C   0  0  0  0  0  0  0  0  0  0  0  0
   26.8950   10.8400   20.4740 C   0  0  0  0  0  0  0  0  0  0  0  0
   27.7990   11.8660   20.1100 C   0  0  0  0  0  0  0  0  0  0  0  0
   29.0490   11.8470   20.5750 N   0  0  0  0  0  0  0  0  0  0  0  0
   29.4690   10.8620   21.3720 C   0  0  0  0  0  0  0  0  0  0  0  0
   28.6460    9.8970   21.7540 N   0  0  0  0  0  0  0  0  0  0  0  0
   27.3790    9.8380   21.3270 C   0  0  0  0  0  0  0  0  0  0  0  0
   22.2490   14.2870   26.3850 H   0  0  0  0  0  0  0  0  0  0  0  0
   21.0850   15.0670   25.2880 H   0  0  0  0  0  0  0  0  0  0  0  0
   22.8330   15.2950   25.0390 H   0  0  0  0  0  0  0  0  0  0  0  0
   22.4350    8.4600   22.1970 H   0  0  0  0  0  0  0  0  0  0  0  0
   22.9400    7.9710   24.6720 H   0  0  0  0  0  0  0  0  0  0  0  0
   22.8840    9.3450   25.7530 H   0  0  0  0  0  0  0  0  0  0  0  0
   20.0500   12.4460   21.1970 H   0  0  0  0  0  0  0  0  0  0  0  0
   17.8740   12.0740   20.0850 H   0  0  0  0  0  0  0  0  0  0  0  0
   18.7010    7.8540   19.8580 H   0  0  0  0  0  0  0  0  0  0  0  0
   20.9270    8.2680   20.8570 H   0  0  0  0  0  0  0  0  0  0  0  0
   15.2100    8.5700   19.0640 H   0  0  0  0  0  0  0  0  0  0  0  0
   16.0130    8.2860   20.6270 H   0  0  0  0  0  0  0  0  0  0  0  0
   16.7680    7.7100   19.1210 H   0  0  0  0  0  0  0  0  0  0  0  0
   21.7720   11.3310   19.0200 H   0  0  0  0  0  0  0  0  0  0  0  0
   23.5510   11.6920   17.3500 H   0  0  0  0  0  0  0  0  0  0  0  0
   25.9270   11.5160   18.0100 H   0  0  0  0  0  0  0  0  0  0  0  0
   24.7040   10.4860   21.9980 H   0  0  0  0  0  0  0  0  0  0  0  0
   27.4770   12.6630   19.4570 H   0  0  0  0  0  0  0  0  0  0  0  0
   30.4950   10.8520   21.7100 H   0  0  0  0  0  0  0  0  0  0  0  0
   26.7360    9.0270   21.6360 H   0  0  0  0  0  0  0  0  0  0  0  0
  1  2  1  0  0  0  0
  1 31  1  0  0  0  0
  1 32  1  0  0  0  0
  1 33  1  0  0  0  0
  2  3  2  0  0  0  0
  2  6  1  0  0  0  0
  3  4  1  0  0  0  0
  4  5  2  0  0  0  0
  4  9  1  0  0  0  0
  5  6  1  0  0  0  0
  5  7  1  0  0  0  0
  7  8  1  0  0  0  0
  7 11  1  0  0  0  0
  7 19  1  0  0  0  0
  8  9  2  0  0  0  0
  8 34  1  0  0  0  0
  9 10  1  0  0  0  0
 10 35  1  0  0  0  0
 10 36  1  0  0  0  0
 11 12  1  0  0  0  0
 11 16  2  0  0  0  0
 12 13  2  0  0  0  0
 12 37  1  0  0  0  0
 13 14  1  0  0  0  0
 13 38  1  0  0  0  0
 14 15  2  0  0  0  0
 14 17  1  0  0  0  0
 15 16  1  0  0  0  0
 15 39  1  0  0  0  0
 16 40  1  0  0  0  0
 17 18  1  0  0  0  0
 18 41  1  0  0  0  0
 18 42  1  0  0  0  0
 18 43  1  0  0  0  0
 19 20  1  0  0  0  0
 19 24  2  0  0  0  0
 20 21  2  0  0  0  0
 20 44  1  0  0  0  0
 21 22  1  0  0  0  0
 21 45  1  0  0  0  0
 22 23  2  0  0  0  0
 22 46  1  0  0  0  0
 23 24  1  0  0  0  0
 23 25  1  0  0  0  0
 24 47  1  0  0  0  0
 25 26  1  0  0  0  0
 25 30  2  0  0  0  0
 26 27  2  0  0  0  0
 26 48  1  0  0  0  0
 27 28  1  0  0  0  0
 28 29  2  0  0  0  0
 28 49  1  0  0  0  0
 29 30  1  0  0  0  0
 30 50  1  0  0  0  0
M  CHG  1   8   1
M  END
>  <PARENT_CMPD_ID>
4B72

>  <STANDARD_TYPE>
IC50

>  <RELATION>
=

>  <STANDARD_VALUE>
0.63

>  <STANDARD_UNITS>
uM

>  <COMPOUND_KEY>
41

>  <PUBMED_ID>
23126626

>  <JOURNAL>
J.Med.Chem.

>  <YEAR>
2013

>  <VOLUME>
56

>  <FIRST_PAGE>
4181

>  <Company>
AstraZeneca

>  <Resolution>
1.6

>  <idx>
139

>  <Model>
Train

>  <target>
6.2006593

>  <des_pred_mlr>
6.6701298

>  <RF_Canvas>
6.48663

>  <DNN_Canvas>
6.2699885

>  <pred_CoMFA>
6.2866001

>  <pred_COMSIA>
6.5795002

>  <pred_abm5>
6.2863574

>  <pred_ff8>
5.1212454

>  <pred_gau6>
6.402348

>  <CID>
BACE_139

>  <active>
0

>  <des_class_bayes>
1

>  <maacs_class_bayes>
0

>  <radial_class_bayes>
0

>  <dend_class_bayes>
0

>  <molprint_class_bayes>
0

>  <RF_canvas>
0

>  <DNN_canvas>
0

$$$$
2ZDZ_1063
  MOE2015           3D

 59 62  0  0  0  0  0  0  0  0999 V2000
   17.2780   11.8250   21.1660 C   0  0  0  0  0  0  0  0  0  0  0  0
   18.0240   10.9830   20.3150 C   0  0  0  0  0  0  0  0  0  0  0  0
   21.6820   10.0260   24.8050 C   0  0  0  0  0  0  0  0  0  0  0  0
   20.8580   10.6140   22.4860 C   0  0  0  0  0  0  0  0  0  0  0  0
   16.0680   11.3850   21.7160 C   0  0  0  0  0  0  0  0  0  0  0  0
   16.3120    9.2550   20.5850 C   0  0  0  0  0  0  0  0  0  0  0  0
   17.5260    9.6930   20.0320 C   0  0  0  0  0  0  0  0  0  0  0  0
   19.2870   11.4910   19.7670 C   0  0  0  0  0  0  0  0  0  0  0  0
   25.1430   11.3390   18.3720 C   0  0  0  0  0  0  0  0  0  0  0  0
   27.7560    9.5490   21.2680 C   0  0  0  0  0  0  0  0  0  0  0  0
   29.2150   11.4040   20.7110 C   0  0  0  0  0  0  0  0  0  0  0  0
   28.0250   10.6940   20.5040 C   0  0  0  0  0  0  0  0  0  0  0  0
   32.2400    9.9310   23.4190 C   0  0  0  0  0  0  0  0  0  0  0  0
   30.8470    9.3960   23.4990 C   0  0  0  0  0  0  0  0  0  0  0  0
   29.8590    9.8310   22.4650 C   0  0  0  0  0  0  0  0  0  0  0  0
   30.1270   10.9800   21.6890 C   0  0  0  0  0  0  0  0  0  0  0  0
   23.7490   11.4790   18.3250 C   0  0  0  0  0  0  0  0  0  0  0  0
   22.9970   11.5840   19.5060 C   0  0  0  0  0  0  0  0  0  0  0  0
   23.6840   11.5560   20.7430 C   0  0  0  0  0  0  0  0  0  0  0  0
   25.0810   11.4130   20.7920 C   0  0  0  0  0  0  0  0  0  0  0  0
   21.5340   11.7450   19.4230 C   0  0  0  0  0  0  0  0  0  0  0  0
   20.8500   12.6400   18.6130 C   0  0  0  0  0  0  0  0  0  0  0  0
   19.4610   12.4820   18.8230 C   0  0  0  0  0  0  0  0  0  0  0  0
   30.6550    8.3730   24.1570 O   0  0  0  0  0  0  0  0  0  0  0  0
   28.6690    9.1210   22.2430 C   0  0  0  0  0  0  0  0  0  0  0  0
   27.1960   11.1760   19.5060 O   0  0  0  0  0  0  0  0  0  0  0  0
   25.8160   11.3010   19.6000 C   0  0  0  0  0  0  0  0  0  0  0  0
   20.5550   11.0480   20.1280 N   0  0  0  0  0  0  0  0  0  0  0  0
   20.8010   10.0050   21.1130 C   0  0  0  0  0  0  0  0  0  0  0  0
   20.4300   11.7330   22.7500 O   0  0  0  0  0  0  0  0  0  0  0  0
   21.4710    9.7490   23.4550 N   0  0  0  0  0  0  0  0  0  0  0  0
   21.7810    8.8470   23.1240 H   0  0  0  0  0  0  0  0  0  0  0  0
   22.4570    9.1270   25.5230 N   0  0  0  0  0  0  0  0  0  0  0  0
   21.4620   11.2980   25.3250 N   0  3  0  0  0  0  0  0  0  0  0  0
   21.8650   11.5570   26.2140 H   0  0  0  0  0  0  0  0  0  0  0  0
   20.9000   11.9630   24.8130 H   0  0  0  0  0  0  0  0  0  0  0  0
   15.5880   10.1050   21.4280 C   0  0  0  0  0  0  0  0  0  0  0  0
   18.3690    8.5940   18.9980 Cl  0  0  0  0  0  0  0  0  0  0  0  0
   17.6430   12.8160   21.3950 H   0  0  0  0  0  0  0  0  0  0  0  0
   15.5030   12.0380   22.3650 H   0  0  0  0  0  0  0  0  0  0  0  0
   15.9390    8.2670   20.3610 H   0  0  0  0  0  0  0  0  0  0  0  0
   25.7040   11.2600   17.4520 H   0  0  0  0  0  0  0  0  0  0  0  0
   26.8430    8.9950   21.1050 H   0  0  0  0  0  0  0  0  0  0  0  0
   29.4310   12.2790   20.1160 H   0  0  0  0  0  0  0  0  0  0  0  0
   32.2480   10.8320   22.8060 H   0  0  0  0  0  0  0  0  0  0  0  0
   32.8920    9.1810   22.9710 H   0  0  0  0  0  0  0  0  0  0  0  0
   32.5960   10.1700   24.4210 H   0  0  0  0  0  0  0  0  0  0  0  0
   31.0390   11.5350   21.8490 H   0  0  0  0  0  0  0  0  0  0  0  0
   23.2470   11.5060   17.3690 H   0  0  0  0  0  0  0  0  0  0  0  0
   23.1260   11.6460   21.6630 H   0  0  0  0  0  0  0  0  0  0  0  0
   25.5890   11.3890   21.7450 H   0  0  0  0  0  0  0  0  0  0  0  0
   21.3050   13.3440   17.9320 H   0  0  0  0  0  0  0  0  0  0  0  0
   18.6760   13.0380   18.3320 H   0  0  0  0  0  0  0  0  0  0  0  0
   28.4550    8.2380   22.8270 H   0  0  0  0  0  0  0  0  0  0  0  0
   19.9950    9.2720   21.0740 H   0  0  0  0  0  0  0  0  0  0  0  0
   21.7490    9.5150   20.8940 H   0  0  0  0  0  0  0  0  0  0  0  0
   22.8530    9.3990   26.4110 H   0  0  0  0  0  0  0  0  0  0  0  0
   22.6250    8.2010   25.1580 H   0  0  0  0  0  0  0  0  0  0  0  0
   14.6550    9.7710   21.8570 H   0  0  0  0  0  0  0  0  0  0  0  0
  1  2  2  0  0  0  0
  1  5  1  0  0  0  0
  1 39  1  0  0  0  0
  2  7  1  0  0  0  0
  2  8  1  0  0  0  0
  3 31  1  0  0  0  0
  3 33  1  0  0  0  0
  3 34  2  0  0  0  0
  4 29  1  0  0  0  0
  4 30  2  0  0  0  0
  4 31  1  0  0  0  0
  5 37  2  0  0  0  0
  5 40  1  0  0  0  0
  6  7  2  0  0  0  0
  6 37  1  0  0  0  0
  6 41  1  0  0  0  0
  7 38  1  0  0  0  0
  8 23  2  0  0  0  0
  8 28  1  0  0  0  0
  9 17  1  0  0  0  0
  9 27  2  0  0  0  0
  9 42  1  0  0  0  0
 10 12  1  0  0  0  0
 10 25  2  0  0  0  0
 10 43  1  0  0  0  0
 11 12  2  0  0  0  0
 11 16  1  0  0  0  0
 11 44  1  0  0  0  0
 12 26  1  0  0  0  0
 13 14  1  0  0  0  0
 13 45  1  0  0  0  0
 13 46  1  0  0  0  0
 13 47  1  0  0  0  0
 14 15  1  0  0  0  0
 14 24  2  0  0  0  0
 15 16  2  0  0  0  0
 15 25  1  0  0  0  0
 16 48  1  0  0  0  0
 17 18  2  0  0  0  0
 17 49  1  0  0  0  0
 18 19  1  0  0  0  0
 18 21  1  0  0  0  0
 19 20  2  0  0  0  0
 19 50  1  0  0  0  0
 20 27  1  0  0  0  0
 20 51  1  0  0  0  0
 21 22  2  0  0  0  0
 21 28  1  0  0  0  0
 22 23  1  0  0  0  0
 22 52  1  0  0  0  0
 23 53  1  0  0  0  0
 25 54  1  0  0  0  0
 26 27  1  0  0  0  0
 28 29  1  0  0  0  0
 29 55  1  0  0  0  0
 29 56  1  0  0  0  0
 31 32  1  0  0  0  0
 33 57  1  0  0  0  0
 33 58  1  0  0  0  0
 34 35  1  0  0  0  0
 34 36  1  0  0  0  0
 37 59  1  0  0  0  0
M  CHG  1  34   1
M  END
>  <PARENT_CMPD_ID>
2ZDZ

>  <STANDARD_TYPE>
IC50

>  <RELATION>
=

>  <STANDARD_VALUE>
0.69999999

>  <STANDARD_UNITS>
uM

>  <COMPOUND_KEY>
3.b.10

>  <PUBMED_ID>
18162398

>  <JOURNAL>
Bioorg.Med.Chem.Lett.

>  <YEAR>
2008

>  <VOLUME>
18

>  <FIRST_PAGE>
1063

>  <Company>
Wyeth

>  <Resolution>
2

>  <idx>
140

>  <Model>
Train

>  <target>
6.154902

>  <des_pred_mlr>
6.8153801

>  <RF_Canvas>
6.3674116

>  <DNN_Canvas>
6.4076343

>  <pred_CoMFA>
6.4534998

>  <pred_COMSIA>
7.4633999

>  <pred_abm5>
6.2514906

>  <pred_ff8>
6.3288188

>  <pred_gau6>
6.4020433

>  <CID>
BACE_140

>  <active>
0

>  <des_class_bayes>
0

>  <maacs_class_bayes>
0

>  <radial_class_bayes>
0

>  <dend_class_bayes>
0

>  <molprint_class_bayes>
0

>  <RF_canvas>
0

>  <DNN_canvas>
0

$$$$
4HZT_2181
  MOE2015           3D

 49 52  0  0  1  0  0  0  0  0999 V2000
   22.0840   15.3420   17.4020 Cl  0  0  0  0  0  0  0  0  0  0  0  0
   23.1680   14.5610   18.6030 C   0  0  0  0  0  0  0  0  0  0  0  0
   24.4080   15.1950   18.9180 C   0  0  0  0  0  0  0  0  0  0  0  0
   25.2500   14.5990   19.8390 C   0  0  0  0  0  0  0  0  0  0  0  0
   24.8320   13.3770   20.4280 C   0  0  0  0  0  0  0  0  0  0  0  0
   23.5700   12.7420   20.0850 C   0  0  0  0  0  0  0  0  0  0  0  0
   22.7210   13.3800   19.1860 C   0  0  0  0  0  0  0  0  0  0  0  0
   25.6990   12.6720   21.4410 C   0  0  0  0  0  0  0  0  0  0  0  0
   25.4920   11.4340   21.6680 N   0  3  0  0  0  0  0  0  0  0  0  0
   24.5410   10.6170   20.8840 C   0  0  0  0  0  0  0  0  0  0  0  0
   24.2610    9.3400   21.6600 C   0  0  0  0  0  0  0  0  0  0  0  0
   25.1120   10.2030   19.4800 C   0  0  0  0  0  0  0  0  0  0  0  0
   23.2430   11.4200   20.7530 C   0  0  0  0  0  0  0  0  0  0  0  0
   26.5870   13.4210   22.0840 N   0  0  0  0  0  0  0  0  0  0  0  0
   27.5620   12.7900   22.9740 C   0  0  3  0  0  0  0  0  0  0  0  0
   27.6280   13.6780   24.1410 C   0  0  0  0  0  0  0  0  0  0  0  0
   28.4810   13.4570   25.1810 N   0  5  0  0  0  0  0  0  0  0  0  0
   28.2860   14.4890   25.9880 C   0  0  0  0  0  0  0  0  0  0  0  0
   29.0430   14.6740   27.2010 O   0  0  0  0  0  0  0  0  0  0  0  0
   27.4300   15.3790   25.4860 O   0  0  0  0  0  0  0  0  0  0  0  0
   26.9950   14.9010   24.3010 N   0  0  0  0  0  0  0  0  0  0  0  0
   28.9740   12.7450   22.3260 C   0  0  0  0  0  0  0  0  0  0  0  0
   28.9570   11.6940   21.2300 C   0  0  0  0  0  0  0  0  0  0  0  0
   28.9950   10.3450   21.6030 C   0  0  0  0  0  0  0  0  0  0  0  0
   28.9530    9.3140   20.6500 C   0  0  0  0  0  0  0  0  0  0  0  0
   28.8900    9.6360   19.2980 C   0  0  0  0  0  0  0  0  0  0  0  0
   28.8170   10.9890   18.9280 C   0  0  0  0  0  0  0  0  0  0  0  0
   28.8700   12.0500   19.8770 C   0  0  0  0  0  0  0  0  0  0  0  0
   24.6840   16.1260   18.4440 H   0  0  0  0  0  0  0  0  0  0  0  0
   26.1960   15.0490   20.1020 H   0  0  0  0  0  0  0  0  0  0  0  0
   21.7490   12.9730   18.9490 H   0  0  0  0  0  0  0  0  0  0  0  0
   25.1810    8.7640   21.7560 H   0  0  0  0  0  0  0  0  0  0  0  0
   23.5160    8.7480   21.1290 H   0  0  0  0  0  0  0  0  0  0  0  0
   23.8850    9.5920   22.6510 H   0  0  0  0  0  0  0  0  0  0  0  0
   26.0330    9.6350   19.6150 H   0  0  0  0  0  0  0  0  0  0  0  0
   25.3200   11.0980   18.8940 H   0  0  0  0  0  0  0  0  0  0  0  0
   24.3800    9.5880   18.9570 H   0  0  0  0  0  0  0  0  0  0  0  0
   22.5260   10.8670   20.1460 H   0  0  0  0  0  0  0  0  0  0  0  0
   22.8190   11.6000   21.7410 H   0  0  0  0  0  0  0  0  0  0  0  0
   26.5890   14.4230   21.9590 H   0  0  0  0  0  0  0  0  0  0  0  0
   27.2700   11.7660   23.2080 H   0  0  0  0  0  0  0  0  0  0  0  0
   29.7180   12.4820   23.0780 H   0  0  0  0  0  0  0  0  0  0  0  0
   29.2160   13.7190   21.9000 H   0  0  0  0  0  0  0  0  0  0  0  0
   29.0580   10.0910   22.6510 H   0  0  0  0  0  0  0  0  0  0  0  0
   28.9690    8.2810   20.9640 H   0  0  0  0  0  0  0  0  0  0  0  0
   28.8970    8.8600   18.5470 H   0  0  0  0  0  0  0  0  0  0  0  0
   28.7170   11.2350   17.8810 H   0  0  0  0  0  0  0  0  0  0  0  0
   28.8440   13.0840   19.5670 H   0  0  0  0  0  0  0  0  0  0  0  0
   26.0020   10.9910   22.4190 H   0  0  0  0  0  0  0  0  0  0  0  0
  1  2  1  0  0  0  0
  2  3  1  0  0  0  0
  2  7  2  0  0  0  0
  3  4  2  0  0  0  0
  3 29  1  0  0  0  0
  4  5  1  0  0  0  0
  4 30  1  0  0  0  0
  5  6  2  0  0  0  0
  5  8  1  0  0  0  0
  6  7  1  0  0  0  0
  6 13  1  0  0  0  0
  7 31  1  0  0  0  0
  8  9  2  0  0  0  0
  8 14  1  0  0  0  0
  9 10  1  0  0  0  0
  9 49  1  0  0  0  0
 10 11  1  0  0  0  0
 10 12  1  0  0  0  0
 10 13  1  0  0  0  0
 11 32  1  0  0  0  0
 11 33  1  0  0  0  0
 11 34  1  0  0  0  0
 12 35  1  0  0  0  0
 12 36  1  0  0  0  0
 12 37  1  0  0  0  0
 13 38  1  0  0  0  0
 13 39  1  0  0  0  0
 14 15  1  0  0  0  0
 14 40  1  0  0  0  0
 15 16  1  0  0  0  0
 15 22  1  0  0  0  0
 15 41  1  0  0  0  0
 16 17  1  0  0  0  0
 16 21  2  0  0  0  0
 17 18  1  0  0  0  0
 18 19  2  0  0  0  0
 18 20  1  0  0  0  0
 20 21  1  0  0  0  0
 22 23  1  0  0  0  0
 22 42  1  0  0  0  0
 22 43  1  0  0  0  0
 23 24  1  0  0  0  0
 23 28  2  0  0  0  0
 24 25  2  0  0  0  0
 24 44  1  0  0  0  0
 25 26  1  0  0  0  0
 25 45  1  0  0  0  0
 26 27  2  0  0  0  0
 26 46  1  0  0  0  0
 27 28  1  0  0  0  0
 27 47  1  0  0  0  0
 28 48  1  0  0  0  0
M  CHG  1   9   1
M  CHG  1  17  -1
M  END
>  <PARENT_CMPD_ID>
4HZT

>  <STANDARD_TYPE>
IC50

>  <RELATION>
=

>  <STANDARD_VALUE>
0.75

>  <STANDARD_UNITS>
uM

>  <COMPOUND_KEY>
16

>  <PUBMED_ID>
23465612

>  <JOURNAL>
Bioorg.Med.Chem.Lett.

>  <YEAR>
2013

>  <VOLUME>
23

>  <FIRST_PAGE>
2181

>  <Company>
Elan

>  <Resolution>
1.8

>  <idx>
141

>  <Model>
Train

>  <target>
6.124939

>  <des_pred_mlr>
6.2392201

>  <RF_Canvas>
6.2711854

>  <DNN_Canvas>
6.1353717

>  <pred_CoMFA>
6.0595999

>  <pred_COMSIA>
5.6875

>  <pred_abm5>
6.0329762

>  <pred_ff8>
5.3358421

>  <pred_gau6>
5.7486911

>  <CID>
BACE_141

>  <active>
0

>  <des_class_bayes>
0

>  <maacs_class_bayes>
0

>  <radial_class_bayes>
0

>  <dend_class_bayes>
0

>  <molprint_class_bayes>
0

>  <RF_canvas>
0

>  <DNN_canvas>
0

$$$$
4J1H_3980
  MOE2015           3D

 45 47  0  0  1  0  0  0  0  0999 V2000
   21.0480   11.7870   23.6990 C   0  0  3  0  0  0  0  0  0  0  0  0
   21.3910   11.7870   22.2080 C   0  0  0  0  0  0  0  0  0  0  0  0
   22.1330   11.1290   24.4000 O   0  0  0  0  0  0  0  0  0  0  0  0
   22.3310    9.8840   24.0030 C   0  0  0  0  0  0  0  0  0  0  0  0
   22.1550    9.4910   22.7870 N   0  0  0  0  0  0  0  0  0  0  0  0
   21.7010   10.3480   21.7090 C   0  0  3  0  0  0  0  0  0  0  0  0
   22.8720   10.5260   20.8020 C   0  0  0  0  0  0  0  0  0  0  0  0
   24.1250   10.1780   21.2330 C   0  0  0  0  0  0  0  0  0  0  0  0
   25.1900   10.3900   20.3570 C   0  0  0  0  0  0  0  0  0  0  0  0
   25.0530   11.0360   19.1130 C   0  0  0  0  0  0  0  0  0  0  0  0
   23.7850   11.3910   18.7160 C   0  0  0  0  0  0  0  0  0  0  0  0
   22.7170   11.1520   19.5560 C   0  0  0  0  0  0  0  0  0  0  0  0
   21.5090   11.5270   19.1100 F   0  0  0  0  0  0  0  0  0  0  0  0
   22.7660    8.9900   24.9510 N   0  0  0  0  0  0  0  0  0  0  0  0
   20.4320    9.7690   21.0400 C   0  0  0  0  0  0  0  0  0  0  0  0
   26.4500   10.0890   20.8030 N   0  0  0  0  0  0  0  0  0  0  0  0
   27.6210   10.4990   20.2640 C   0  0  0  0  0  0  0  0  0  0  0  0
   28.8130   10.1370   21.0500 C   0  0  0  0  0  0  0  0  0  0  0  0
   27.7130   11.1780   19.2470 O   0  0  0  0  0  0  0  0  0  0  0  0
   28.6750    9.2190   22.0030 N   0  0  0  0  0  0  0  0  0  0  0  0
   29.6690    8.8590   22.7890 C   0  0  0  0  0  0  0  0  0  0  0  0
   30.9000    9.4900   22.6510 C   0  0  0  0  0  0  0  0  0  0  0  0
   31.1140   10.5130   21.6630 C   0  0  0  0  0  0  0  0  0  0  0  0
   30.0260   10.8330   20.8400 C   0  0  0  0  0  0  0  0  0  0  0  0
   31.9560    9.0670   23.5080 C   0  0  0  0  0  0  0  0  0  0  0  0
   32.7770    8.7200   24.1980 N   0  0  0  0  0  0  0  0  0  0  0  0
   21.0880   13.2390   24.1860 C   0  0  0  0  0  0  0  0  0  0  0  0
   20.0600   13.9210   23.5550 F   0  0  0  0  0  0  0  0  0  0  0  0
   20.7380   13.2060   25.5420 F   0  0  0  0  0  0  0  0  0  0  0  0
   22.3700   13.8610   23.9440 F   0  0  0  0  0  0  0  0  0  0  0  0
   20.0830   11.3100   23.8660 H   0  0  0  0  0  0  0  0  0  0  0  0
   22.2650   12.4180   22.0430 H   0  0  0  0  0  0  0  0  0  0  0  0
   20.5450   12.1840   21.6470 H   0  0  0  0  0  0  0  0  0  0  0  0
   24.2820    9.7550   22.2140 H   0  0  0  0  0  0  0  0  0  0  0  0
   25.9120   11.2450   18.4930 H   0  0  0  0  0  0  0  0  0  0  0  0
   23.6260   11.8540   17.7530 H   0  0  0  0  0  0  0  0  0  0  0  0
   22.9470    8.0300   24.6950 H   0  0  0  0  0  0  0  0  0  0  0  0
   22.9050    9.2930   25.9040 H   0  0  0  0  0  0  0  0  0  0  0  0
   19.6390    9.6780   21.7820 H   0  0  0  0  0  0  0  0  0  0  0  0
   20.6560    8.7860   20.6260 H   0  0  0  0  0  0  0  0  0  0  0  0
   20.1070   10.4350   20.2400 H   0  0  0  0  0  0  0  0  0  0  0  0
   26.5110    9.4990   21.6200 H   0  0  0  0  0  0  0  0  0  0  0  0
   29.5300    8.0850   23.5290 H   0  0  0  0  0  0  0  0  0  0  0  0
   32.0670   11.0100   21.5600 H   0  0  0  0  0  0  0  0  0  0  0  0
   30.1110   11.5860   20.0710 H   0  0  0  0  0  0  0  0  0  0  0  0
  1  2  1  0  0  0  0
  1  3  1  0  0  0  0
  1 27  1  0  0  0  0
  1 31  1  0  0  0  0
  2  6  1  0  0  0  0
  2 32  1  0  0  0  0
  2 33  1  0  0  0  0
  3  4  1  0  0  0  0
  4  5  2  0  0  0  0
  4 14  1  0  0  0  0
  5  6  1  0  0  0  0
  6  7  1  0  0  0  0
  6 15  1  0  0  0  0
  7  8  1  0  0  0  0
  7 12  2  0  0  0  0
  8  9  2  0  0  0  0
  8 34  1  0  0  0  0
  9 10  1  0  0  0  0
  9 16  1  0  0  0  0
 10 11  2  0  0  0  0
 10 35  1  0  0  0  0
 11 12  1  0  0  0  0
 11 36  1  0  0  0  0
 12 13  1  0  0  0  0
 14 37  1  0  0  0  0
 14 38  1  0  0  0  0
 15 39  1  0  0  0  0
 15 40  1  0  0  0  0
 15 41  1  0  0  0  0
 16 17  1  0  0  0  0
 16 42  1  0  0  0  0
 17 18  1  0  0  0  0
 17 19  2  0  0  0  0
 18 20  1  0  0  0  0
 18 24  2  0  0  0  0
 20 21  2  0  0  0  0
 21 22  1  0  0  0  0
 21 43  1  0  0  0  0
 22 23  2  0  0  0  0
 22 25  1  0  0  0  0
 23 24  1  0  0  0  0
 23 44  1  0  0  0  0
 24 45  1  0  0  0  0
 25 26  3  0  0  0  0
 27 28  1  0  0  0  0
 27 29  1  0  0  0  0
 27 30  1  0  0  0  0
M  END
>  <PARENT_CMPD_ID>
4J1H

>  <STANDARD_TYPE>
IC50

>  <RELATION>
=

>  <STANDARD_VALUE>
0.77600002

>  <STANDARD_UNITS>
uM

>  <COMPOUND_KEY>
109

>  <PUBMED_ID>
23590342

>  <JOURNAL>
J.Med.Chem.

>  <YEAR>
2013

>  <VOLUME>
56

>  <FIRST_PAGE>
3980

>  <Company>
Roche

>  <Resolution>
2.2

>  <idx>
142

>  <Model>
Train

>  <target>
6.1101384

>  <des_pred_mlr>
6.95612

>  <RF_Canvas>
7.1083856

>  <DNN_Canvas>
7.3327127

>  <pred_CoMFA>
6.4489999

>  <pred_COMSIA>
6.4061999

>  <pred_abm5>
6.7538118

>  <pred_ff8>
6.9237809

>  <pred_gau6>
7.3143063

>  <CID>
BACE_142

>  <active>
0

>  <des_class_bayes>
1

>  <maacs_class_bayes>
1

>  <radial_class_bayes>
0

>  <dend_class_bayes>
1

>  <molprint_class_bayes>
1

>  <RF_canvas>
1

>  <DNN_canvas>
1

$$$$
3PI5_1942
  MOE2015           3D

 56 59  0  0  1  0  0  0  0  0999 V2000
   28.2780   10.7440   19.6080 Br  0  0  0  0  0  0  0  0  0  0  0  0
   26.3960   10.8890   19.6080 C   0  0  0  0  0  0  0  0  0  0  0  0
   25.7530   11.5830   18.5780 C   0  0  0  0  0  0  0  0  0  0  0  0
   24.3550   11.6330   18.5490 C   0  0  0  0  0  0  0  0  0  0  0  0
   23.5920   11.0160   19.5500 C   0  0  0  0  0  0  0  0  0  0  0  0
   24.2410   10.3550   20.6000 C   0  0  0  0  0  0  0  0  0  0  0  0
   25.6470   10.2910   20.6350 C   0  0  0  0  0  0  0  0  0  0  0  0
   23.3930    9.7040   21.7130 C   0  0  0  0  0  0  0  0  0  0  0  0
   22.9620   10.7830   22.7530 C   0  0  3  0  0  0  0  0  0  0  0  0
   22.3370   10.0900   23.9610 C   0  0  3  0  0  0  0  0  0  0  0  0
   21.7340   11.0550   24.9720 C   0  0  3  0  0  0  0  0  0  0  0  0
   22.7740   12.0130   25.5570 C   0  0  0  0  0  0  0  0  0  0  0  0
   23.4450   12.9950   24.2180 S   0  0  0  0  0  0  0  0  0  0  0  0
   24.1550   11.6470   23.1790 C   0  0  0  0  0  0  0  0  0  0  0  0
   24.4980   13.8080   24.6920 O   0  0  0  0  0  0  0  0  0  0  0  0
   22.3560   13.5960   23.4870 O   0  0  0  0  0  0  0  0  0  0  0  0
   21.1120   10.2290   26.0490 N   0  3  0  0  0  0  0  0  0  0  0  0
   20.1740   10.9740   26.9140 C   0  0  0  0  0  0  0  0  0  0  0  0
   18.9860   11.6210   26.1520 C   0  0  0  0  0  0  0  0  0  0  0  0
   18.0760   10.8710   25.3800 C   0  0  0  0  0  0  0  0  0  0  0  0
   17.0210   11.5300   24.6960 C   0  0  0  0  0  0  0  0  0  0  0  0
   16.8790   12.9130   24.8040 C   0  0  0  0  0  0  0  0  0  0  0  0
   17.7740   13.6500   25.5860 C   0  0  0  0  0  0  0  0  0  0  0  0
   18.8290   13.0120   26.2500 C   0  0  0  0  0  0  0  0  0  0  0  0
   15.9850   10.8170   23.8070 C   0  0  0  0  0  0  0  0  0  0  0  0
   15.6830    9.4010   24.3180 C   0  0  0  0  0  0  0  0  0  0  0  0
   16.6070    9.5950   23.1140 C   0  0  0  0  0  0  0  0  0  0  0  0
   21.2910    9.2290   23.5050 O   0  0  0  0  0  0  0  0  0  0  0  0
   26.4980   12.2170   17.5880 O   0  0  0  0  0  0  0  0  0  0  0  0
   23.8570   12.1540   17.7450 H   0  0  0  0  0  0  0  0  0  0  0  0
   22.5130   11.0500   19.5120 H   0  0  0  0  0  0  0  0  0  0  0  0
   26.1470    9.7850   21.4470 H   0  0  0  0  0  0  0  0  0  0  0  0
   23.9820    8.9350   22.2130 H   0  0  0  0  0  0  0  0  0  0  0  0
   22.5050    9.2520   21.2720 H   0  0  0  0  0  0  0  0  0  0  0  0
   22.2280   11.4460   22.2950 H   0  0  0  0  0  0  0  0  0  0  0  0
   23.1400    9.5470   24.4600 H   0  0  0  0  0  0  0  0  0  0  0  0
   20.9940   11.6850   24.4790 H   0  0  0  0  0  0  0  0  0  0  0  0
   23.5720   11.4450   26.0340 H   0  0  0  0  0  0  0  0  0  0  0  0
   22.3030   12.6650   26.2930 H   0  0  0  0  0  0  0  0  0  0  0  0
   24.6550   12.0640   22.3040 H   0  0  0  0  0  0  0  0  0  0  0  0
   24.8660   11.0560   23.7560 H   0  0  0  0  0  0  0  0  0  0  0  0
   21.8500    9.8560   26.6290 H   0  0  0  0  0  0  0  0  0  0  0  0
   20.6080    9.4690   25.6150 H   0  0  0  0  0  0  0  0  0  0  0  0
   20.7290   11.7650   27.4180 H   0  0  0  0  0  0  0  0  0  0  0  0
   19.7700   10.2840   27.6550 H   0  0  0  0  0  0  0  0  0  0  0  0
   18.1810    9.7980   25.3090 H   0  0  0  0  0  0  0  0  0  0  0  0
   16.0770   13.4150   24.2830 H   0  0  0  0  0  0  0  0  0  0  0  0
   17.6510   14.7190   25.6780 H   0  0  0  0  0  0  0  0  0  0  0  0
   19.5240   13.5920   26.8390 H   0  0  0  0  0  0  0  0  0  0  0  0
   15.3850   11.6720   23.4940 H   0  0  0  0  0  0  0  0  0  0  0  0
   14.6910    8.9720   24.1790 H   0  0  0  0  0  0  0  0  0  0  0  0
   16.0930    9.0670   25.2710 H   0  0  0  0  0  0  0  0  0  0  0  0
   17.6750    9.3990   23.2100 H   0  0  0  0  0  0  0  0  0  0  0  0
   16.2720    9.3050   22.1180 H   0  0  0  0  0  0  0  0  0  0  0  0
   20.6280    9.7780   23.0810 H   0  0  0  0  0  0  0  0  0  0  0  0
   25.9800   12.6690   16.9180 H   0  0  0  0  0  0  0  0  0  0  0  0
  1  2  1  0  0  0  0
  2  3  1  0  0  0  0
  2  7  2  0  0  0  0
  3  4  2  0  0  0  0
  3 29  1  0  0  0  0
  4  5  1  0  0  0  0
  4 30  1  0  0  0  0
  5  6  2  0  0  0  0
  5 31  1  0  0  0  0
  6  7  1  0  0  0  0
  6  8  1  0  0  0  0
  7 32  1  0  0  0  0
  8  9  1  0  0  0  0
  8 33  1  0  0  0  0
  8 34  1  0  0  0  0
  9 10  1  0  0  0  0
  9 14  1  0  0  0  0
  9 35  1  0  0  0  0
 10 11  1  0  0  0  0
 10 28  1  0  0  0  0
 10 36  1  0  0  0  0
 11 12  1  0  0  0  0
 11 17  1  0  0  0  0
 11 37  1  0  0  0  0
 12 13  1  0  0  0  0
 12 38  1  0  0  0  0
 12 39  1  0  0  0  0
 13 14  1  0  0  0  0
 13 15  2  0  0  0  0
 13 16  2  0  0  0  0
 14 40  1  0  0  0  0
 14 41  1  0  0  0  0
 17 18  1  0  0  0  0
 17 42  1  0  0  0  0
 17 43  1  0  0  0  0
 18 19  1  0  0  0  0
 18 44  1  0  0  0  0
 18 45  1  0  0  0  0
 19 20  1  0  0  0  0
 19 24  2  0  0  0  0
 20 21  2  0  0  0  0
 20 46  1  0  0  0  0
 21 22  1  0  0  0  0
 21 25  1  0  0  0  0
 22 23  2  0  0  0  0
 22 47  1  0  0  0  0
 23 24  1  0  0  0  0
 23 48  1  0  0  0  0
 24 49  1  0  0  0  0
 25 26  1  0  0  0  0
 25 27  1  0  0  0  0
 25 50  1  0  0  0  0
 26 27  1  0  0  0  0
 26 51  1  0  0  0  0
 26 52  1  0  0  0  0
 27 53  1  0  0  0  0
 27 54  1  0  0  0  0
 28 55  1  0  0  0  0
 29 56  1  0  0  0  0
M  CHG  1  17   1
M  END
>  <PARENT_CMPD_ID>
3PI5

>  <STANDARD_TYPE>
IC50

>  <RELATION>
=

>  <STANDARD_VALUE>
0.94999999

>  <STANDARD_UNITS>
uM

>  <COMPOUND_KEY>
2

>  <PUBMED_ID>
21388807

>  <JOURNAL>
Bioorg.Med.Chem.Lett.

>  <YEAR>
2011

>  <VOLUME>
21

>  <FIRST_PAGE>
1942

>  <Company>
Novartis

>  <Resolution>
2.4000001

>  <idx>
143

>  <Model>
Train

>  <target>
6.0222764

>  <des_pred_mlr>
6.2596502

>  <RF_Canvas>
6.1372657

>  <DNN_Canvas>
5.2979908

>  <pred_CoMFA>
6.2873998

>  <pred_COMSIA>
5.9905

>  <pred_abm5>
5.8334394

>  <pred_ff8>
6.8699083

>  <pred_gau6>
6.3674483

>  <CID>
BACE_143

>  <active>
0

>  <des_class_bayes>
1

>  <maacs_class_bayes>
0

>  <radial_class_bayes>
0

>  <dend_class_bayes>
0

>  <molprint_class_bayes>
0

>  <RF_canvas>
0

>  <DNN_canvas>
0

$$$$
4IVT_5706
  MOE2015           3D

 48 50  0  0  0  0  0  0  0  0999 V2000
   27.0540   15.1930   17.6690 C   0  0  0  0  0  0  0  0  0  0  0  0
   26.2640   14.4250   18.7370 C   0  0  0  0  0  0  0  0  0  0  0  0
   26.2870   14.7280   19.9070 O   0  0  0  0  0  0  0  0  0  0  0  0
   25.4760   13.2960   18.3260 N   0  0  0  0  0  0  0  0  0  0  0  0
   24.6790   12.5060   19.2770 C   0  0  0  0  0  0  0  0  0  0  0  0
   25.1580   11.3030   19.7860 C   0  0  0  0  0  0  0  0  0  0  0  0
   24.3870   10.5600   20.6600 C   0  0  0  0  0  0  0  0  0  0  0  0
   26.6830   10.8180   19.3430 Cl  0  0  0  0  0  0  0  0  0  0  0  0
   23.4360   12.9360   19.6470 C   0  0  0  0  0  0  0  0  0  0  0  0
   22.8320   14.4540   19.0170 Cl  0  0  0  0  0  0  0  0  0  0  0  0
   22.6570   12.2260   20.5080 C   0  0  0  0  0  0  0  0  0  0  0  0
   23.1220   11.0140   21.0060 C   0  0  0  0  0  0  0  0  0  0  0  0
   22.2030   10.2520   22.0180 C   0  0  0  0  0  0  0  0  0  0  0  0
   22.3710   10.9320   23.2820 N   0  0  0  0  0  0  0  0  0  0  0  0
   22.7140   10.2580   24.4760 C   0  0  0  0  0  0  0  0  0  0  0  0
   22.8700    8.9610   24.5350 N   0  0  0  0  0  0  0  0  0  0  0  0
   22.8940   10.9970   25.6940 N   0  0  0  0  0  0  0  0  0  0  0  0
   22.7540   12.4060   25.7600 C   0  0  0  0  0  0  0  0  0  0  0  0
   22.4670   13.0630   24.7840 O   0  0  0  0  0  0  0  0  0  0  0  0
   22.9860   13.0220   27.1360 C   0  0  0  0  0  0  0  0  0  0  0  0
   22.6040   14.3400   27.2800 N   0  0  0  0  0  0  0  0  0  0  0  0
   23.3530   15.4160   26.8190 C   0  0  0  0  0  0  0  0  0  0  0  0
   24.6020   15.4630   26.1420 C   0  0  0  0  0  0  0  0  0  0  0  0
   25.1620   16.7380   25.7790 C   0  0  0  0  0  0  0  0  0  0  0  0
   24.4800   17.8920   26.0820 C   0  0  0  0  0  0  0  0  0  0  0  0
   23.2400   17.8350   26.7500 C   0  0  0  0  0  0  0  0  0  0  0  0
   22.6800   16.5590   27.1170 C   0  0  0  0  0  0  0  0  0  0  0  0
   21.4580   16.1540   27.7930 C   0  0  0  0  0  0  0  0  0  0  0  0
   21.4770   14.7620   27.8590 C   0  0  0  0  0  0  0  0  0  0  0  0
   26.8800   14.7410   16.6930 H   0  0  0  0  0  0  0  0  0  0  0  0
   28.1180   15.1520   17.9040 H   0  0  0  0  0  0  0  0  0  0  0  0
   26.7260   16.2320   17.6520 H   0  0  0  0  0  0  0  0  0  0  0  0
   25.4690   13.0360   17.3500 H   0  0  0  0  0  0  0  0  0  0  0  0
   24.7650    9.6350   21.0700 H   0  0  0  0  0  0  0  0  0  0  0  0
   21.6870   12.6000   20.8010 H   0  0  0  0  0  0  0  0  0  0  0  0
   22.5120    9.2100   22.1020 H   0  0  0  0  0  0  0  0  0  0  0  0
   21.1630   10.2980   21.6960 H   0  0  0  0  0  0  0  0  0  0  0  0
   22.7450    8.3990   23.7050 H   0  0  0  0  0  0  0  0  0  0  0  0
   23.1160    8.5210   25.4100 H   0  0  0  0  0  0  0  0  0  0  0  0
   23.1300   10.4930   26.5370 H   0  0  0  0  0  0  0  0  0  0  0  0
   24.0520   12.9580   27.3550 H   0  0  0  0  0  0  0  0  0  0  0  0
   22.4290   12.4320   27.8640 H   0  0  0  0  0  0  0  0  0  0  0  0
   25.1260   14.5500   25.9020 H   0  0  0  0  0  0  0  0  0  0  0  0
   26.1140   16.7880   25.2710 H   0  0  0  0  0  0  0  0  0  0  0  0
   24.8970   18.8490   25.8060 H   0  0  0  0  0  0  0  0  0  0  0  0
   22.7110   18.7460   26.9860 H   0  0  0  0  0  0  0  0  0  0  0  0
   20.6850   16.8060   28.1710 H   0  0  0  0  0  0  0  0  0  0  0  0
   20.7160   14.1360   28.3000 H   0  0  0  0  0  0  0  0  0  0  0  0
  1  2  1  0  0  0  0
  1 30  1  0  0  0  0
  1 31  1  0  0  0  0
  1 32  1  0  0  0  0
  2  3  2  0  0  0  0
  2  4  1  0  0  0  0
  4  5  1  0  0  0  0
  4 33  1  0  0  0  0
  5  6  2  0  0  0  0
  5  9  1  0  0  0  0
  6  7  1  0  0  0  0
  6  8  1  0  0  0  0
  7 12  2  0  0  0  0
  7 34  1  0  0  0  0
  9 10  1  0  0  0  0
  9 11  2  0  0  0  0
 11 12  1  0  0  0  0
 11 35  1  0  0  0  0
 12 13  1  0  0  0  0
 13 14  1  0  0  0  0
 13 36  1  0  0  0  0
 13 37  1  0  0  0  0
 14 15  2  0  0  0  0
 15 16  1  0  0  0  0
 15 17  1  0  0  0  0
 16 38  1  0  0  0  0
 16 39  1  0  0  0  0
 17 18  1  0  0  0  0
 17 40  1  0  0  0  0
 18 19  2  0  0  0  0
 18 20  1  0  0  0  0
 20 21  1  0  0  0  0
 20 41  1  0  0  0  0
 20 42  1  0  0  0  0
 21 22  1  0  0  0  0
 21 29  1  0  0  0  0
 22 23  1  0  0  0  0
 22 27  2  0  0  0  0
 23 24  2  0  0  0  0
 23 43  1  0  0  0  0
 24 25  1  0  0  0  0
 24 44  1  0  0  0  0
 25 26  2  0  0  0  0
 25 45  1  0  0  0  0
 26 27  1  0  0  0  0
 26 46  1  0  0  0  0
 27 28  1  0  0  0  0
 28 29  2  0  0  0  0
 28 47  1  0  0  0  0
 29 48  1  0  0  0  0
M  END
>  <PARENT_CMPD_ID>
4IVT

>  <STANDARD_TYPE>
IC50

>  <RELATION>
=

>  <STANDARD_VALUE>
1.01

>  <STANDARD_UNITS>
uM

>  <COMPOUND_KEY>
19

>  <PUBMED_ID>
23681056

>  <JOURNAL>
Molecules

>  <YEAR>
2013

>  <VOLUME>
18

>  <FIRST_PAGE>
5706

>  <Company>
SIMM

>  <Resolution>
1.6

>  <idx>
144

>  <Model>
Train

>  <target>
5.9956784

>  <des_pred_mlr>
5.62848

>  <RF_Canvas>
6.1230431

>  <DNN_Canvas>
6.3641086

>  <pred_CoMFA>
6.5207

>  <pred_COMSIA>
5.5932002

>  <pred_abm5>
5.9394879

>  <pred_ff8>
5.8944297

>  <pred_gau6>
5.9264731

>  <CID>
BACE_144

>  <active>
0

>  <des_class_bayes>
0

>  <maacs_class_bayes>
0

>  <radial_class_bayes>
0

>  <dend_class_bayes>
0

>  <molprint_class_bayes>
0

>  <RF_canvas>
0

>  <DNN_canvas>
0

$$$$
3LNK_2837
  MOE2015           3D

 88 91  0  0  1  0  0  0  0  0999 V2000
   18.4310   13.7240   25.2990 C   0  0  0  0  0  0  0  0  0  0  0  0
   26.7380   11.1390   18.9350 F   0  0  0  0  0  0  0  0  0  0  0  0
   18.9330   12.4790   25.5160 N   0  0  0  0  0  0  0  0  0  0  0  0
   18.7110   14.4350   24.3370 O   0  0  0  0  0  0  0  0  0  0  0  0
   26.8250   14.6610   23.4860 C   0  0  0  0  0  0  0  0  0  0  0  0
   22.8900   13.6830   18.3850 F   0  0  0  0  0  0  0  0  0  0  0  0
   23.4330   12.0780   23.3310 N   0  0  0  0  0  0  0  0  0  0  0  0
   28.9610   14.1050   24.1150 O   0  0  0  0  0  0  0  0  0  0  0  0
   28.1980   14.2100   23.1240 C   0  0  0  0  0  0  0  0  0  0  0  0
   20.7740   10.3690   26.3750 N   0  3  0  0  0  0  0  0  0  0  0  0
   22.1420   13.9290   23.2350 O   0  0  0  0  0  0  0  0  0  0  0  0
   23.2300   13.3840   23.4110 C   0  0  0  0  0  0  0  0  0  0  0  0
   28.5460   13.8780   21.8510 N   0  0  0  0  0  0  0  0  0  0  0  0
   20.8750    9.3430   23.7210 O   0  0  0  0  0  0  0  0  0  0  0  0
   21.1210   11.2110   25.2030 C   0  0  3  0  0  0  0  0  0  0  0  0
   22.3800   11.1040   22.9800 C   0  0  3  0  0  0  0  0  0  0  0  0
   24.4040   14.2360   23.7030 C   0  0  0  0  0  0  0  0  0  0  0  0
   21.8440   10.3050   24.1860 C   0  0  3  0  0  0  0  0  0  0  0  0
   19.8800   11.9030   24.5400 C   0  0  0  0  0  0  0  0  0  0  0  0
   25.6940   13.8400   23.2210 C   0  0  0  0  0  0  0  0  0  0  0  0
   23.6110   10.9650   20.7230 C   0  0  0  0  0  0  0  0  0  0  0  0
   22.9520   10.1840   21.8710 C   0  0  0  0  0  0  0  0  0  0  0  0
   26.6590   15.8890   24.1910 C   0  0  0  0  0  0  0  0  0  0  0  0
   24.2430   15.4730   24.4330 C   0  0  0  0  0  0  0  0  0  0  0  0
   17.4870   14.2970   26.2890 C   0  0  0  0  0  0  0  0  0  0  0  0
   24.8640   12.3930   18.5800 C   0  0  0  0  0  0  0  0  0  0  0  0
   25.5290   11.3880   19.2880 C   0  0  0  0  0  0  0  0  0  0  0  0
   23.5440   12.6950   18.9980 C   0  0  0  0  0  0  0  0  0  0  0  0
   25.4020   16.3040   24.6680 C   0  0  0  0  0  0  0  0  0  0  0  0
   24.9550   10.6690   20.3690 C   0  0  0  0  0  0  0  0  0  0  0  0
   22.8940   11.9920   20.0360 C   0  0  0  0  0  0  0  0  0  0  0  0
   18.6050   11.5470   26.6470 C   0  0  0  0  0  0  0  0  0  0  0  0
   19.9270   11.0880   27.3560 C   0  0  0  0  0  0  0  0  0  0  0  0
   29.8610   13.2440   21.5980 C   0  0  0  0  0  0  0  0  0  0  0  0
   27.6810   14.2330   20.6730 C   0  0  0  0  0  0  0  0  0  0  0  0
   18.0290   15.0150   27.4110 C   0  0  0  0  0  0  0  0  0  0  0  0
   16.0740   14.1240   26.1200 C   0  0  0  0  0  0  0  0  0  0  0  0
   25.2700   17.6510   25.4350 C   0  0  0  0  0  0  0  0  0  0  0  0
   29.7740   11.7730   21.1180 C   0  0  0  0  0  0  0  0  0  0  0  0
   28.3630   15.2540   19.7260 C   0  0  0  0  0  0  0  0  0  0  0  0
   28.8640   10.9320   22.0260 C   0  0  0  0  0  0  0  0  0  0  0  0
   28.8110   16.5450   20.4590 C   0  0  0  0  0  0  0  0  0  0  0  0
   15.1750   14.6750   27.0760 C   0  0  0  0  0  0  0  0  0  0  0  0
   17.1310   15.5650   28.3690 C   0  0  0  0  0  0  0  0  0  0  0  0
   15.7150   15.3820   28.1930 C   0  0  0  0  0  0  0  0  0  0  0  0
   24.3610   11.7280   23.5210 H   0  0  0  0  0  0  0  0  0  0  0  0
   21.6280   10.0820   26.8320 H   0  0  0  0  0  0  0  0  0  0  0  0
   20.2740    9.5530   26.0520 H   0  0  0  0  0  0  0  0  0  0  0  0
   20.5560    8.8590   24.4860 H   0  0  0  0  0  0  0  0  0  0  0  0
   21.7590   12.0290   25.5390 H   0  0  0  0  0  0  0  0  0  0  0  0
   21.5040   11.6420   22.6180 H   0  0  0  0  0  0  0  0  0  0  0  0
   22.7000    9.8320   24.6660 H   0  0  0  0  0  0  0  0  0  0  0  0
   20.2370   12.7040   23.8920 H   0  0  0  0  0  0  0  0  0  0  0  0
   19.3500   11.1610   23.9420 H   0  0  0  0  0  0  0  0  0  0  0  0
   25.8070   12.9240   22.6600 H   0  0  0  0  0  0  0  0  0  0  0  0
   22.1380    9.5860   21.4620 H   0  0  0  0  0  0  0  0  0  0  0  0
   23.6980    9.5260   22.3160 H   0  0  0  0  0  0  0  0  0  0  0  0
   27.5210   16.5170   24.3630 H   0  0  0  0  0  0  0  0  0  0  0  0
   23.2710   15.7720   24.7970 H   0  0  0  0  0  0  0  0  0  0  0  0
   25.3320   12.9130   17.7570 H   0  0  0  0  0  0  0  0  0  0  0  0
   25.5210    9.9220   20.9050 H   0  0  0  0  0  0  0  0  0  0  0  0
   21.8750   12.2260   20.3050 H   0  0  0  0  0  0  0  0  0  0  0  0
   18.0820   10.6740   26.2570 H   0  0  0  0  0  0  0  0  0  0  0  0
   17.9680   12.0610   27.3670 H   0  0  0  0  0  0  0  0  0  0  0  0
   20.4620   11.9600   27.7320 H   0  0  0  0  0  0  0  0  0  0  0  0
   19.6850   10.4240   28.1860 H   0  0  0  0  0  0  0  0  0  0  0  0
   30.4360   13.2680   22.5240 H   0  0  0  0  0  0  0  0  0  0  0  0
   30.3790   13.8230   20.8330 H   0  0  0  0  0  0  0  0  0  0  0  0
   26.7490   14.6640   21.0400 H   0  0  0  0  0  0  0  0  0  0  0  0
   27.4650   13.3240   20.1110 H   0  0  0  0  0  0  0  0  0  0  0  0
   19.0960   15.1350   27.5250 H   0  0  0  0  0  0  0  0  0  0  0  0
   15.6930   13.5770   25.2700 H   0  0  0  0  0  0  0  0  0  0  0  0
   26.2490   18.1250   25.5080 H   0  0  0  0  0  0  0  0  0  0  0  0
   24.8820   17.4630   26.4360 H   0  0  0  0  0  0  0  0  0  0  0  0
   24.5870   18.3090   24.8980 H   0  0  0  0  0  0  0  0  0  0  0  0
   30.7740   11.3400   21.1220 H   0  0  0  0  0  0  0  0  0  0  0  0
   29.3750   11.7550   20.1040 H   0  0  0  0  0  0  0  0  0  0  0  0
   27.6580   15.5260   18.9410 H   0  0  0  0  0  0  0  0  0  0  0  0
   29.2400   14.7840   19.2800 H   0  0  0  0  0  0  0  0  0  0  0  0
   29.2550   10.9430   23.0430 H   0  0  0  0  0  0  0  0  0  0  0  0
   28.8340    9.9060   21.6600 H   0  0  0  0  0  0  0  0  0  0  0  0
   27.8570   11.3500   22.0190 H   0  0  0  0  0  0  0  0  0  0  0  0
   27.9430   17.0260   20.9100 H   0  0  0  0  0  0  0  0  0  0  0  0
   29.2740   17.2260   19.7450 H   0  0  0  0  0  0  0  0  0  0  0  0
   29.5310   16.2900   21.2370 H   0  0  0  0  0  0  0  0  0  0  0  0
   14.1070   14.5610   26.9590 H   0  0  0  0  0  0  0  0  0  0  0  0
   17.5090   16.1140   29.2190 H   0  0  0  0  0  0  0  0  0  0  0  0
   15.0390   15.7920   28.9290 H   0  0  0  0  0  0  0  0  0  0  0  0
  1  3  1  0  0  0  0
  1  4  2  0  0  0  0
  1 25  1  0  0  0  0
  2 27  1  0  0  0  0
  3 19  1  0  0  0  0
  3 32  1  0  0  0  0
  5  9  1  0  0  0  0
  5 20  2  0  0  0  0
  5 23  1  0  0  0  0
  6 28  1  0  0  0  0
  7 12  1  0  0  0  0
  7 16  1  0  0  0  0
  7 46  1  0  0  0  0
  8  9  2  0  0  0  0
  9 13  1  0  0  0  0
 10 15  1  0  0  0  0
 10 33  1  0  0  0  0
 10 47  1  0  0  0  0
 10 48  1  0  0  0  0
 11 12  2  0  0  0  0
 12 17  1  0  0  0  0
 13 34  1  0  0  0  0
 13 35  1  0  0  0  0
 14 18  1  0  0  0  0
 14 49  1  0  0  0  0
 15 18  1  0  0  0  0
 15 19  1  0  0  0  0
 15 50  1  0  0  0  0
 16 18  1  0  0  0  0
 16 22  1  0  0  0  0
 16 51  1  0  0  0  0
 17 20  1  0  0  0  0
 17 24  2  0  0  0  0
 18 52  1  0  0  0  0
 19 53  1  0  0  0  0
 19 54  1  0  0  0  0
 20 55  1  0  0  0  0
 21 22  1  0  0  0  0
 21 30  2  0  0  0  0
 21 31  1  0  0  0  0
 22 56  1  0  0  0  0
 22 57  1  0  0  0  0
 23 29  2  0  0  0  0
 23 58  1  0  0  0  0
 24 29  1  0  0  0  0
 24 59  1  0  0  0  0
 25 36  1  0  0  0  0
 25 37  2  0  0  0  0
 26 27  2  0  0  0  0
 26 28  1  0  0  0  0
 26 60  1  0  0  0  0
 27 30  1  0  0  0  0
 28 31  2  0  0  0  0
 29 38  1  0  0  0  0
 30 61  1  0  0  0  0
 31 62  1  0  0  0  0
 32 33  1  0  0  0  0
 32 63  1  0  0  0  0
 32 64  1  0  0  0  0
 33 65  1  0  0  0  0
 33 66  1  0  0  0  0
 34 39  1  0  0  0  0
 34 67  1  0  0  0  0
 34 68  1  0  0  0  0
 35 40  1  0  0  0  0
 35 69  1  0  0  0  0
 35 70  1  0  0  0  0
 36 44  2  0  0  0  0
 36 71  1  0  0  0  0
 37 43  1  0  0  0  0
 37 72  1  0  0  0  0
 38 73  1  0  0  0  0
 38 74  1  0  0  0  0
 38 75  1  0  0  0  0
 39 41  1  0  0  0  0
 39 76  1  0  0  0  0
 39 77  1  0  0  0  0
 40 42  1  0  0  0  0
 40 78  1  0  0  0  0
 40 79  1  0  0  0  0
 41 80  1  0  0  0  0
 41 81  1  0  0  0  0
 41 82  1  0  0  0  0
 42 83  1  0  0  0  0
 42 84  1  0  0  0  0
 42 85  1  0  0  0  0
 43 45  2  0  0  0  0
 43 86  1  0  0  0  0
 44 45  1  0  0  0  0
 44 87  1  0  0  0  0
 45 88  1  0  0  0  0
M  CHG  1  10   1
M  END
>  <PARENT_CMPD_ID>
3LNK

>  <STANDARD_TYPE>
IC50

>  <RELATION>
=

>  <STANDARD_VALUE>
1.15

>  <STANDARD_UNITS>
uM

>  <COMPOUND_KEY>
13

>  <PUBMED_ID>
20347593

>  <JOURNAL>
Bioorg.Med.Chem.Lett.

>  <YEAR>
2010

>  <VOLUME>
20

>  <FIRST_PAGE>
2837

>  <Company>
Merck

>  <Resolution>
1.8

>  <idx>
145

>  <Model>
Train

>  <target>
5.939302

>  <des_pred_mlr>
7.4980001

>  <RF_Canvas>
6.8928242

>  <DNN_Canvas>
7.4130387

>  <pred_CoMFA>
6.6360998

>  <pred_COMSIA>
6.7135

>  <pred_abm5>
6.6131487

>  <pred_ff8>
7.3705821

>  <pred_gau6>
6.4515901

>  <CID>
BACE_145

>  <active>
0

>  <des_class_bayes>
1

>  <maacs_class_bayes>
1

>  <radial_class_bayes>
0

>  <dend_class_bayes>
0

>  <molprint_class_bayes>
0

>  <RF_canvas>
0

>  <DNN_canvas>
1

$$$$
3VF3_3364
  MOE2015           3D

 56 58  0  0  1  0  0  0  0  0999 V2000
   28.0400   10.8190   19.4660 Br  0  0  0  0  0  0  0  0  0  0  0  0
   26.2130   11.1470   19.5040 C   0  0  0  0  0  0  0  0  0  0  0  0
   25.5410   12.0580   18.6360 C   0  0  0  0  0  0  0  0  0  0  0  0
   24.1340   12.2210   18.7720 C   0  0  0  0  0  0  0  0  0  0  0  0
   23.4050   11.4990   19.7430 C   0  0  0  0  0  0  0  0  0  0  0  0
   22.3370   11.6350   19.8280 H   0  0  0  0  0  0  0  0  0  0  0  0
   24.0760   10.5960   20.6050 C   0  0  0  0  0  0  0  0  0  0  0  0
   25.4780   10.4270   20.4720 C   0  0  0  0  0  0  0  0  0  0  0  0
   25.9930    9.7350   21.1220 H   0  0  0  0  0  0  0  0  0  0  0  0
   23.3060    9.8090   21.6860 C   0  0  0  0  0  0  0  0  0  0  0  0
   23.9670    9.0520   22.1090 H   0  0  0  0  0  0  0  0  0  0  0  0
   22.4460    9.3240   21.2240 H   0  0  0  0  0  0  0  0  0  0  0  0
   22.7980   10.7500   22.8470 C   0  0  3  0  0  0  0  0  0  0  0  0
   22.0010   11.3360   22.3900 H   0  0  0  0  0  0  0  0  0  0  0  0
   22.1630    9.9890   24.0600 C   0  0  3  0  0  0  0  0  0  0  0  0
   23.0010    9.4180   24.4600 H   0  0  0  0  0  0  0  0  0  0  0  0
   21.5410   10.9440   25.1330 C   0  0  3  0  0  0  0  0  0  0  0  0
   20.7950   11.5300   24.5960 H   0  0  0  0  0  0  0  0  0  0  0  0
   22.5400   11.9820   25.7180 C   0  0  0  0  0  0  0  0  0  0  0  0
   23.3510   11.4580   26.2230 H   0  0  0  0  0  0  0  0  0  0  0  0
   22.0200   12.6210   26.4320 H   0  0  0  0  0  0  0  0  0  0  0  0
   23.2170   12.9940   24.3940 S   0  0  0  0  0  0  0  0  0  0  0  0
   23.9220   11.7140   23.3560 C   0  0  0  0  0  0  0  0  0  0  0  0
   24.4150   12.1750   22.5000 H   0  0  0  0  0  0  0  0  0  0  0  0
   24.6510   11.1440   23.9320 H   0  0  0  0  0  0  0  0  0  0  0  0
   24.2970   13.8020   24.9310 O   0  0  0  0  0  0  0  0  0  0  0  0
   22.1450   13.6850   23.7000 O   0  0  0  0  0  0  0  0  0  0  0  0
   20.8500   10.1840   26.2120 N   0  3  0  0  0  0  0  0  0  0  0  0
   21.5730    9.8240   26.8190 H   0  0  0  0  0  0  0  0  0  0  0  0
   20.3740    9.4150   25.7630 H   0  0  0  0  0  0  0  0  0  0  0  0
   19.8470   10.8470   27.0940 C   0  0  0  0  0  0  0  0  0  0  0  0
   20.3320   11.6500   27.6490 H   0  0  0  0  0  0  0  0  0  0  0  0
   19.4440   10.1140   27.7930 H   0  0  0  0  0  0  0  0  0  0  0  0
   18.6950   11.4350   26.2550 C   0  0  0  0  0  0  0  0  0  0  0  0
   17.7930   10.5650   25.5960 C   0  0  0  0  0  0  0  0  0  0  0  0
   17.9240    9.4970   25.6920 H   0  0  0  0  0  0  0  0  0  0  0  0
   16.7220   11.0650   24.8130 C   0  0  0  0  0  0  0  0  0  0  0  0
   16.5780   12.4760   24.6770 C   0  0  0  0  0  0  0  0  0  0  0  0
   15.7810   12.8760   24.0690 H   0  0  0  0  0  0  0  0  0  0  0  0
   17.4720   13.3590   25.3330 C   0  0  0  0  0  0  0  0  0  0  0  0
   17.3420   14.4270   25.2400 H   0  0  0  0  0  0  0  0  0  0  0  0
   18.5360   12.8390   26.1110 C   0  0  0  0  0  0  0  0  0  0  0  0
   19.2280   13.5120   26.5960 H   0  0  0  0  0  0  0  0  0  0  0  0
   15.7580   10.0740   24.1170 C   0  0  0  0  0  0  0  0  0  0  0  0
   16.0070    8.7890   24.4990 F   0  0  0  0  0  0  0  0  0  0  0  0
   15.9010   10.1310   22.7620 F   0  0  0  0  0  0  0  0  0  0  0  0
   14.2860   10.3730   24.4880 C   0  0  0  0  0  0  0  0  0  0  0  0
   14.1680   10.3280   25.5710 H   0  0  0  0  0  0  0  0  0  0  0  0
   13.6360    9.6330   24.0210 H   0  0  0  0  0  0  0  0  0  0  0  0
   14.0170   11.3680   24.1340 H   0  0  0  0  0  0  0  0  0  0  0  0
   21.0570    9.1570   23.6660 O   0  0  0  0  0  0  0  0  0  0  0  0
   20.3670    9.7320   23.3280 H   0  0  0  0  0  0  0  0  0  0  0  0
   23.4760   13.0670   17.9800 F   0  0  0  0  0  0  0  0  0  0  0  0
   26.1840   12.7840   17.6840 N   0  0  0  0  0  0  0  0  0  0  0  0
   25.6630   13.4190   17.0960 H   0  0  0  0  0  0  0  0  0  0  0  0
   27.1820   12.6890   17.5650 H   0  0  0  0  0  0  0  0  0  0  0  0
  1  2  1  0  0  0  0
  2  3  1  0  0  0  0
  2  8  2  0  0  0  0
  3  4  2  0  0  0  0
  3 54  1  0  0  0  0
  4  5  1  0  0  0  0
  4 53  1  0  0  0  0
  5  6  1  0  0  0  0
  5  7  2  0  0  0  0
  7  8  1  0  0  0  0
  7 10  1  0  0  0  0
  8  9  1  0  0  0  0
 10 11  1  0  0  0  0
 10 12  1  0  0  0  0
 10 13  1  0  0  0  0
 13 14  1  0  0  0  0
 13 15  1  0  0  0  0
 13 23  1  0  0  0  0
 15 16  1  0  0  0  0
 15 17  1  0  0  0  0
 15 51  1  0  0  0  0
 17 18  1  0  0  0  0
 17 19  1  0  0  0  0
 17 28  1  0  0  0  0
 19 20  1  0  0  0  0
 19 21  1  0  0  0  0
 19 22  1  0  0  0  0
 22 23  1  0  0  0  0
 22 26  2  0  0  0  0
 22 27  2  0  0  0  0
 23 24  1  0  0  0  0
 23 25  1  0  0  0  0
 28 29  1  0  0  0  0
 28 30  1  0  0  0  0
 28 31  1  0  0  0  0
 31 32  1  0  0  0  0
 31 33  1  0  0  0  0
 31 34  1  0  0  0  0
 34 35  1  0  0  0  0
 34 42  2  0  0  0  0
 35 36  1  0  0  0  0
 35 37  2  0  0  0  0
 37 38  1  0  0  0  0
 37 44  1  0  0  0  0
 38 39  1  0  0  0  0
 38 40  2  0  0  0  0
 40 41  1  0  0  0  0
 40 42  1  0  0  0  0
 42 43  1  0  0  0  0
 44 45  1  0  0  0  0
 44 46  1  0  0  0  0
 44 47  1  0  0  0  0
 47 48  1  0  0  0  0
 47 49  1  0  0  0  0
 47 50  1  0  0  0  0
 51 52  1  0  0  0  0
 54 55  1  0  0  0  0
 54 56  1  0  0  0  0
M  CHG  1  28   1
M  END
>  <PARENT_CMPD_ID>
3VF3

>  <STANDARD_TYPE>
IC50

>  <RELATION>
=

>  <STANDARD_VALUE>
1.37

>  <STANDARD_UNITS>
uM

>  <COMPOUND_KEY>
14d

>  <PUBMED_ID>
22380629

>  <JOURNAL>
J.Med.Chem.

>  <YEAR>
2012

>  <VOLUME>
55

>  <FIRST_PAGE>
3364

>  <Company>
Novartis

>  <Resolution>
1.48

>  <idx>
146

>  <Model>
Train

>  <target>
5.8632793

>  <des_pred_mlr>
6.6352601

>  <RF_Canvas>
6.3255935

>  <DNN_Canvas>
5.5787816

>  <pred_CoMFA>
6.4826002

>  <pred_COMSIA>
5.8267002

>  <pred_abm5>
6.0250354

>  <pred_ff8>
7.3691249

>  <pred_gau6>
6.2750716

>  <CID>
BACE_146

>  <active>
0

>  <des_class_bayes>
1

>  <maacs_class_bayes>
0

>  <radial_class_bayes>
0

>  <dend_class_bayes>
0

>  <molprint_class_bayes>
0

>  <RF_canvas>
0

>  <DNN_canvas>
0

$$$$
1TQF_6117
  MOE2015           3D

 75 77  0  0  1  0  0  0  0  0999 V2000
   30.3270   18.0830   22.4990 C   0  0  0  0  0  0  0  0  0  0  0  0
   31.4300   17.1390   22.3700 C   0  0  0  0  0  0  0  0  0  0  0  0
   32.0730   16.4960   23.5110 C   0  0  0  0  0  0  0  0  0  0  0  0
   31.5710   16.7990   24.8420 C   0  0  0  0  0  0  0  0  0  0  0  0
   30.4460   17.7310   24.9770 C   0  0  0  0  0  0  0  0  0  0  0  0
   29.8250   18.3870   23.8270 C   0  0  0  0  0  0  0  0  0  0  0  0
   28.7010   16.7950   26.8500 S   0  0  0  0  0  0  0  0  0  0  0  0
   27.6180   16.8580   25.6730 O   0  0  0  0  0  0  0  0  0  0  0  0
   28.0920   17.2790   28.0600 O   0  0  0  0  0  0  0  0  0  0  0  0
   29.2960   15.5100   26.8520 O   0  0  0  0  0  0  0  0  0  0  0  0
   29.9020   18.0240   26.3560 C   0  0  0  0  0  0  0  0  0  0  0  0
   27.2530   15.6830   25.0170 C   0  0  0  0  0  0  0  0  0  0  0  0
   25.9240   15.1910   25.2410 C   0  0  0  0  0  0  0  0  0  0  0  0
   25.4330   14.0390   24.5400 C   0  0  0  0  0  0  0  0  0  0  0  0
   26.3140   13.3690   23.6190 C   0  0  0  0  0  0  0  0  0  0  0  0
   27.6560   13.8200   23.3830 C   0  0  0  0  0  0  0  0  0  0  0  0
   28.1150   14.9880   24.0860 C   0  0  0  0  0  0  0  0  0  0  0  0
   24.1020   13.7170   24.7790 O   0  0  0  0  0  0  0  0  0  0  0  0
   28.5580   13.1450   22.4280 C   0  0  0  0  0  0  0  0  0  0  0  0
   23.5240   12.4450   24.3940 C   0  0  0  0  0  0  0  0  0  0  0  0
   23.2780   12.3980   22.8960 C   0  0  0  0  0  0  0  0  0  0  0  0
   23.0820   11.1450   22.4380 N   0  0  0  0  0  0  0  0  0  0  0  0
   23.2500   13.4340   22.2280 O   0  0  0  0  0  0  0  0  0  0  0  0
   28.3460   11.8270   22.2450 N   0  0  0  0  0  0  0  0  0  0  0  0
   29.4560   13.7220   21.8120 O   0  0  0  0  0  0  0  0  0  0  0  0
   29.3200   11.0390   21.4960 C   0  0  3  0  0  0  0  0  0  0  0  0
   28.5490   10.1030   20.5590 C   0  0  0  0  0  0  0  0  0  0  0  0
   24.6420   12.1830   19.1740 C   0  0  0  0  0  0  0  0  0  0  0  0
   24.9910   10.9970   20.0680 C   0  0  0  0  0  0  0  0  0  0  0  0
   23.7910   10.0980   20.3100 C   0  0  0  0  0  0  0  0  0  0  0  0
   22.6900   10.8290   21.0710 C   0  0  0  0  0  0  0  0  0  0  0  0
   25.4570   14.2210   18.1190 N   0  3  0  0  0  0  0  0  0  0  0  0
   25.8500   13.0930   18.9790 C   0  0  0  0  0  0  0  0  0  0  0  0
   29.7820    9.2420   23.3080 C   0  0  0  0  0  0  0  0  0  0  0  0
   30.2500   10.2850   22.3760 C   0  0  0  0  0  0  0  0  0  0  0  0
   31.6450   10.6730   22.2320 C   0  0  0  0  0  0  0  0  0  0  0  0
   32.6210    9.9930   23.0240 C   0  0  0  0  0  0  0  0  0  0  0  0
   32.1490    8.9360   23.8950 C   0  0  0  0  0  0  0  0  0  0  0  0
   30.7700    8.5310   24.0720 C   0  0  0  0  0  0  0  0  0  0  0  0
   33.0730    8.2960   24.5940 F   0  0  0  0  0  0  0  0  0  0  0  0
   29.8920   18.5460   21.6260 H   0  0  0  0  0  0  0  0  0  0  0  0
   31.7900   16.9030   21.3790 H   0  0  0  0  0  0  0  0  0  0  0  0
   32.8990   15.8140   23.3710 H   0  0  0  0  0  0  0  0  0  0  0  0
   32.0180   16.3460   25.7150 H   0  0  0  0  0  0  0  0  0  0  0  0
   29.0100   19.0830   23.9630 H   0  0  0  0  0  0  0  0  0  0  0  0
   29.4260   19.0040   26.3500 H   0  0  0  0  0  0  0  0  0  0  0  0
   30.7250   18.0240   27.0710 H   0  0  0  0  0  0  0  0  0  0  0  0
   25.2830   15.6960   25.9490 H   0  0  0  0  0  0  0  0  0  0  0  0
   25.9540   12.5000   23.0890 H   0  0  0  0  0  0  0  0  0  0  0  0
   29.1180   15.3510   23.9160 H   0  0  0  0  0  0  0  0  0  0  0  0
   22.5770   12.3100   24.9160 H   0  0  0  0  0  0  0  0  0  0  0  0
   24.2090   11.6430   24.6690 H   0  0  0  0  0  0  0  0  0  0  0  0
   23.2150   10.3790   23.0820 H   0  0  0  0  0  0  0  0  0  0  0  0
   27.5190   11.3870   22.6230 H   0  0  0  0  0  0  0  0  0  0  0  0
   29.9540   11.7130   20.9200 H   0  0  0  0  0  0  0  0  0  0  0  0
   27.9200    9.4360   21.1490 H   0  0  0  0  0  0  0  0  0  0  0  0
   29.2540    9.5140   19.9730 H   0  0  0  0  0  0  0  0  0  0  0  0
   27.9240   10.6940   19.8890 H   0  0  0  0  0  0  0  0  0  0  0  0
   23.8370   12.7540   19.6370 H   0  0  0  0  0  0  0  0  0  0  0  0
   24.3140   11.8130   18.2030 H   0  0  0  0  0  0  0  0  0  0  0  0
   25.3500   11.3720   21.0270 H   0  0  0  0  0  0  0  0  0  0  0  0
   25.7770   10.4140   19.5890 H   0  0  0  0  0  0  0  0  0  0  0  0
   24.1080    9.2320   20.8910 H   0  0  0  0  0  0  0  0  0  0  0  0
   23.3970    9.7660   19.3490 H   0  0  0  0  0  0  0  0  0  0  0  0
   22.4590   11.7570   20.5490 H   0  0  0  0  0  0  0  0  0  0  0  0
   21.8030   10.1970   21.0980 H   0  0  0  0  0  0  0  0  0  0  0  0
   26.2500   14.8320   17.9820 H   0  0  0  0  0  0  0  0  0  0  0  0
   24.7080   14.7350   18.5600 H   0  0  0  0  0  0  0  0  0  0  0  0
   25.1440   13.8700   17.2250 H   0  0  0  0  0  0  0  0  0  0  0  0
   26.6570   12.5340   18.5050 H   0  0  0  0  0  0  0  0  0  0  0  0
   26.1860   13.4680   19.9450 H   0  0  0  0  0  0  0  0  0  0  0  0
   28.7300    9.0200   23.4130 H   0  0  0  0  0  0  0  0  0  0  0  0
   31.9350   11.4540   21.5450 H   0  0  0  0  0  0  0  0  0  0  0  0
   33.6670   10.2560   22.9750 H   0  0  0  0  0  0  0  0  0  0  0  0
   30.4970    7.7330   24.7460 H   0  0  0  0  0  0  0  0  0  0  0  0
  1  2  1  0  0  0  0
  1  6  2  0  0  0  0
  1 41  1  0  0  0  0
  2  3  2  0  0  0  0
  2 42  1  0  0  0  0
  3  4  1  0  0  0  0
  3 43  1  0  0  0  0
  4  5  2  0  0  0  0
  4 44  1  0  0  0  0
  5  6  1  0  0  0  0
  5 11  1  0  0  0  0
  6 45  1  0  0  0  0
  7  8  1  0  0  0  0
  7  9  2  0  0  0  0
  7 10  2  0  0  0  0
  7 11  1  0  0  0  0
  8 12  1  0  0  0  0
 11 46  1  0  0  0  0
 11 47  1  0  0  0  0
 12 13  1  0  0  0  0
 12 17  2  0  0  0  0
 13 14  2  0  0  0  0
 13 48  1  0  0  0  0
 14 15  1  0  0  0  0
 14 18  1  0  0  0  0
 15 16  2  0  0  0  0
 15 49  1  0  0  0  0
 16 17  1  0  0  0  0
 16 19  1  0  0  0  0
 17 50  1  0  0  0  0
 18 20  1  0  0  0  0
 19 24  1  0  0  0  0
 19 25  2  0  0  0  0
 20 21  1  0  0  0  0
 20 51  1  0  0  0  0
 20 52  1  0  0  0  0
 21 22  1  0  0  0  0
 21 23  2  0  0  0  0
 22 31  1  0  0  0  0
 22 53  1  0  0  0  0
 24 26  1  0  0  0  0
 24 54  1  0  0  0  0
 26 27  1  0  0  0  0
 26 35  1  0  0  0  0
 26 55  1  0  0  0  0
 27 56  1  0  0  0  0
 27 57  1  0  0  0  0
 27 58  1  0  0  0  0
 28 29  1  0  0  0  0
 28 33  1  0  0  0  0
 28 59  1  0  0  0  0
 28 60  1  0  0  0  0
 29 30  1  0  0  0  0
 29 61  1  0  0  0  0
 29 62  1  0  0  0  0
 30 31  1  0  0  0  0
 30 63  1  0  0  0  0
 30 64  1  0  0  0  0
 31 65  1  0  0  0  0
 31 66  1  0  0  0  0
 32 33  1  0  0  0  0
 32 67  1  0  0  0  0
 32 68  1  0  0  0  0
 32 69  1  0  0  0  0
 33 70  1  0  0  0  0
 33 71  1  0  0  0  0
 34 35  1  0  0  0  0
 34 39  2  0  0  0  0
 34 72  1  0  0  0  0
 35 36  2  0  0  0  0
 36 37  1  0  0  0  0
 36 73  1  0  0  0  0
 37 38  2  0  0  0  0
 37 74  1  0  0  0  0
 38 39  1  0  0  0  0
 38 40  1  0  0  0  0
 39 75  1  0  0  0  0
M  CHG  1  32   1
M  END
>  <PARENT_CMPD_ID>
1TQF

>  <STANDARD_TYPE>
IC50

>  <RELATION>
=

>  <STANDARD_VALUE>
1.4

>  <STANDARD_UNITS>
uM

>  <COMPOUND_KEY>
5

>  <PUBMED_ID>
15566281

>  <JOURNAL>
J.Med.Chem.

>  <YEAR>
2004

>  <VOLUME>
47

>  <FIRST_PAGE>
6117

>  <Company>
Merck

>  <Resolution>
1.8

>  <idx>
147

>  <Model>
Train

>  <target>
5.8538718

>  <des_pred_mlr>
7.0603199

>  <RF_Canvas>
6.2859683

>  <DNN_Canvas>
5.9627862

>  <pred_CoMFA>
5.9256001

>  <pred_COMSIA>
7.5240002

>  <pred_abm5>
6.4189281

>  <pred_ff8>
5.9117341

>  <pred_gau6>
6.4344854

>  <CID>
BACE_147

>  <active>
0

>  <des_class_bayes>
1

>  <maacs_class_bayes>
0

>  <radial_class_bayes>
0

>  <dend_class_bayes>
0

>  <molprint_class_bayes>
0

>  <RF_canvas>
0

>  <DNN_canvas>
0

$$$$
3IND_1146
  MOE2015           3D

 49 53  0  0  1  0  0  0  0  0999 V2000
   22.5640   12.0370   25.3550 C   0  0  0  0  0  0  0  0  0  0  0  0
   22.3900   11.3630   24.0770 N   0  0  0  0  0  0  0  0  0  0  0  0
   21.7370   13.1760   22.8010 O   0  0  0  0  0  0  0  0  0  0  0  0
   21.9930   11.9910   22.9280 C   0  0  0  0  0  0  0  0  0  0  0  0
   22.2580    9.6780   22.6210 N   0  0  0  0  0  0  0  0  0  0  0  0
   21.9450   10.9130   21.8240 C   0  0  3  0  0  0  0  0  0  0  0  0
   22.7780    9.1600   24.8500 N   0  0  0  0  0  0  0  0  0  0  0  0
   22.5830   10.0410   23.8250 C   0  0  0  0  0  0  0  0  0  0  0  0
   20.5480   10.7640   21.1860 C   0  0  0  0  0  0  0  0  0  0  0  0
   20.0260    9.5090   20.8350 C   0  0  0  0  0  0  0  0  0  0  0  0
   18.7600    9.3770   20.2550 C   0  0  0  0  0  0  0  0  0  0  0  0
   17.9800   10.5030   20.0110 C   0  0  0  0  0  0  0  0  0  0  0  0
   18.4690   11.7590   20.3480 C   0  0  0  0  0  0  0  0  0  0  0  0
   19.7370   11.8880   20.9260 C   0  0  0  0  0  0  0  0  0  0  0  0
   23.1150   11.1130   20.7650 C   0  0  0  0  0  0  0  0  0  0  0  0
   22.8040   12.2900   19.7810 C   0  0  0  0  0  0  0  0  0  0  0  0
   23.9470   12.5060   18.7740 C   0  0  0  0  0  0  0  0  0  0  0  0
   25.2410   12.8410   19.5310 C   0  0  0  0  0  0  0  0  0  0  0  0
   25.6040   11.6870   20.4760 C   0  0  0  0  0  0  0  0  0  0  0  0
   24.4600   11.4690   21.4810 C   0  0  0  0  0  0  0  0  0  0  0  0
   25.8060   10.3970   19.6690 C   0  0  0  0  0  0  0  0  0  0  0  0
   24.5220   10.0600   18.9000 C   0  0  0  0  0  0  0  0  0  0  0  0
   24.1590   11.2210   17.9630 C   0  0  0  0  0  0  0  0  0  0  0  0
   23.3720    9.8410   19.9010 C   0  0  0  0  0  0  0  0  0  0  0  0
   22.3350   13.0960   25.2410 H   0  0  0  0  0  0  0  0  0  0  0  0
   23.5950   11.9220   25.6890 H   0  0  0  0  0  0  0  0  0  0  0  0
   21.8930   11.5970   26.0920 H   0  0  0  0  0  0  0  0  0  0  0  0
   22.6700    8.1680   24.6910 H   0  0  0  0  0  0  0  0  0  0  0  0
   23.0300    9.5000   25.7670 H   0  0  0  0  0  0  0  0  0  0  0  0
   20.6170    8.6230   21.0170 H   0  0  0  0  0  0  0  0  0  0  0  0
   18.3870    8.3970   19.9960 H   0  0  0  0  0  0  0  0  0  0  0  0
   17.0020   10.4020   19.5630 H   0  0  0  0  0  0  0  0  0  0  0  0
   17.8690   12.6380   20.1630 H   0  0  0  0  0  0  0  0  0  0  0  0
   20.1030   12.8720   21.1790 H   0  0  0  0  0  0  0  0  0  0  0  0
   22.6630   13.2040   20.3570 H   0  0  0  0  0  0  0  0  0  0  0  0
   21.8900   12.0610   19.2340 H   0  0  0  0  0  0  0  0  0  0  0  0
   23.6900   13.3270   18.1050 H   0  0  0  0  0  0  0  0  0  0  0  0
   25.0950   13.7520   20.1120 H   0  0  0  0  0  0  0  0  0  0  0  0
   26.0500   12.9910   18.8160 H   0  0  0  0  0  0  0  0  0  0  0  0
   26.5240   11.9370   21.0050 H   0  0  0  0  0  0  0  0  0  0  0  0
   24.7300   10.6520   22.1510 H   0  0  0  0  0  0  0  0  0  0  0  0
   24.3200   12.3820   22.0600 H   0  0  0  0  0  0  0  0  0  0  0  0
   26.0470    9.5790   20.3480 H   0  0  0  0  0  0  0  0  0  0  0  0
   26.6250   10.5360   18.9630 H   0  0  0  0  0  0  0  0  0  0  0  0
   24.6810    9.1550   18.3130 H   0  0  0  0  0  0  0  0  0  0  0  0
   24.9680   11.3750   17.2490 H   0  0  0  0  0  0  0  0  0  0  0  0
   23.2420   10.9780   17.4260 H   0  0  0  0  0  0  0  0  0  0  0  0
   22.4640    9.5980   19.3490 H   0  0  0  0  0  0  0  0  0  0  0  0
   23.6290    9.0120   20.5600 H   0  0  0  0  0  0  0  0  0  0  0  0
  1  2  1  0  0  0  0
  1 25  1  0  0  0  0
  1 26  1  0  0  0  0
  1 27  1  0  0  0  0
  2  4  1  0  0  0  0
  2  8  1  0  0  0  0
  3  4  2  0  0  0  0
  4  6  1  0  0  0  0
  5  6  1  0  0  0  0
  5  8  2  0  0  0  0
  6  9  1  0  0  0  0
  6 15  1  0  0  0  0
  7  8  1  0  0  0  0
  7 28  1  0  0  0  0
  7 29  1  0  0  0  0
  9 10  1  0  0  0  0
  9 14  2  0  0  0  0
 10 11  2  0  0  0  0
 10 30  1  0  0  0  0
 11 12  1  0  0  0  0
 11 31  1  0  0  0  0
 12 13  2  0  0  0  0
 12 32  1  0  0  0  0
 13 14  1  0  0  0  0
 13 33  1  0  0  0  0
 14 34  1  0  0  0  0
 15 16  1  0  0  0  0
 15 20  1  0  0  0  0
 15 24  1  0  0  0  0
 16 17  1  0  0  0  0
 16 35  1  0  0  0  0
 16 36  1  0  0  0  0
 17 18  1  0  0  0  0
 17 23  1  0  0  0  0
 17 37  1  0  0  0  0
 18 19  1  0  0  0  0
 18 38  1  0  0  0  0
 18 39  1  0  0  0  0
 19 20  1  0  0  0  0
 19 21  1  0  0  0  0
 19 40  1  0  0  0  0
 20 41  1  0  0  0  0
 20 42  1  0  0  0  0
 21 22  1  0  0  0  0
 21 43  1  0  0  0  0
 21 44  1  0  0  0  0
 22 23  1  0  0  0  0
 22 24  1  0  0  0  0
 22 45  1  0  0  0  0
 23 46  1  0  0  0  0
 23 47  1  0  0  0  0
 24 48  1  0  0  0  0
 24 49  1  0  0  0  0
M  END
>  <PARENT_CMPD_ID>
3IND

>  <STANDARD_TYPE>
IC50

>  <RELATION>
=

>  <STANDARD_VALUE>
1.53

>  <STANDARD_UNITS>
uM

>  <COMPOUND_KEY>
29

>  <PUBMED_ID>
19968289

>  <JOURNAL>
J.Med.Chem.

>  <YEAR>
2010

>  <VOLUME>
53

>  <FIRST_PAGE>
1146

>  <Company>
Wyeth

>  <Resolution>
2.25

>  <idx>
148

>  <Model>
Train

>  <target>
5.8153086

>  <des_pred_mlr>
4.2346001

>  <RF_Canvas>
5.7210879

>  <DNN_Canvas>
5.8267798

>  <pred_CoMFA>
5.9596

>  <pred_COMSIA>
6.0397

>  <pred_abm5>
6.2684164

>  <pred_ff8>
5.1818666

>  <pred_gau6>
6.0518646

>  <CID>
BACE_148

>  <active>
0

>  <des_class_bayes>
0

>  <maacs_class_bayes>
0

>  <radial_class_bayes>
0

>  <dend_class_bayes>
0

>  <molprint_class_bayes>
0

>  <RF_canvas>
0

>  <DNN_canvas>
0

$$$$
2PH8_5831
  MOE2015           3D

 66 68  0  0  1  0  0  0  0  0999 V2000
   25.2750   14.1940   24.1670 C   0  0  0  0  0  0  0  0  0  0  0  0
   26.1900   13.8270   23.0420 C   0  0  0  0  0  0  0  0  0  0  0  0
   24.2580   12.7630   19.6050 C   0  0  0  0  0  0  0  0  0  0  0  0
   23.1650   12.1090   20.3880 C   0  0  0  0  0  0  0  0  0  0  0  0
   23.6270   12.2800   23.9850 O   0  0  0  0  0  0  0  0  0  0  0  0
   23.8730   13.6610   24.3610 C   0  0  0  0  0  0  0  0  0  0  0  0
   23.3800   10.9550   21.0120 C   0  0  0  0  0  0  0  0  0  0  0  0
   22.2850   10.2740   21.7910 C   0  0  0  0  0  0  0  0  0  0  0  0
   22.2800   10.4560   23.3060 C   0  0  3  0  0  0  0  0  0  0  0  0
   25.4590   12.1990   19.5270 C   0  0  0  0  0  0  0  0  0  0  0  0
   25.7210   10.9060   20.2330 C   0  0  0  0  0  0  0  0  0  0  0  0
   24.7360   10.3410   20.9160 C   0  0  0  0  0  0  0  0  0  0  0  0
   29.2800   12.8580   22.0380 C   0  0  0  0  0  0  0  0  0  0  0  0
   28.5770   11.4970   21.9210 C   0  0  3  0  0  0  0  0  0  0  0  0
   28.2720   11.1450   20.4540 C   0  0  0  0  0  0  0  0  0  0  0  0
   27.0820   10.2240   20.1630 C   0  0  0  0  0  0  0  0  0  0  0  0
   27.4050   14.3860   22.9710 C   0  0  0  0  0  0  0  0  0  0  0  0
   28.3690   14.0590   21.8440 C   0  0  0  0  0  0  0  0  0  0  0  0
   27.8540   15.2930   23.8810 N   0  0  0  0  0  0  0  0  0  0  0  0
   25.7200   15.0790   25.0470 C   0  0  0  0  0  0  0  0  0  0  0  0
   27.0910   15.6160   24.8700 C   0  0  0  0  0  0  0  0  0  0  0  0
   27.4990   16.5410   25.7800 N   0  0  0  0  0  0  0  0  0  0  0  0
   28.9640   16.3230   26.5960 S   0  0  0  0  0  0  0  0  0  0  0  0
   30.1740   17.0730   25.6290 C   0  0  0  0  0  0  0  0  0  0  0  0
   28.8660   17.1690   28.0320 O   0  0  0  0  0  0  0  0  0  0  0  0
   29.3250   14.7020   26.6800 O   0  0  0  0  0  0  0  0  0  0  0  0
   26.9890   17.9080   25.6000 C   0  0  0  0  0  0  0  0  0  0  0  0
   29.3970   10.4110   22.6200 C   0  0  0  0  0  0  0  0  0  0  0  0
   22.3750   11.9260   23.6180 C   0  0  0  0  0  0  0  0  0  0  0  0
   21.4180   12.6660   23.4670 O   0  0  0  0  0  0  0  0  0  0  0  0
   20.9710    9.8960   23.8880 C   0  0  0  0  0  0  0  0  0  0  0  0
   23.4040    9.7120   23.9510 N   0  3  0  0  0  0  0  0  0  0  0  0
   25.8730   13.1170   22.2930 H   0  0  0  0  0  0  0  0  0  0  0  0
   24.0710   13.6990   19.1000 H   0  0  0  0  0  0  0  0  0  0  0  0
   22.1940   12.5780   20.4470 H   0  0  0  0  0  0  0  0  0  0  0  0
   23.2010   14.2850   23.7720 H   0  0  0  0  0  0  0  0  0  0  0  0
   23.6280   13.7610   25.4180 H   0  0  0  0  0  0  0  0  0  0  0  0
   22.3580    9.2050   21.5910 H   0  0  0  0  0  0  0  0  0  0  0  0
   21.3340   10.6500   21.4140 H   0  0  0  0  0  0  0  0  0  0  0  0
   26.2440   12.6730   18.9560 H   0  0  0  0  0  0  0  0  0  0  0  0
   24.9210    9.4040   21.4200 H   0  0  0  0  0  0  0  0  0  0  0  0
   30.0650   12.9010   21.2830 H   0  0  0  0  0  0  0  0  0  0  0  0
   29.7260   12.9260   23.0300 H   0  0  0  0  0  0  0  0  0  0  0  0
   27.6150   11.5610   22.4290 H   0  0  0  0  0  0  0  0  0  0  0  0
   29.1610   10.6640   20.0460 H   0  0  0  0  0  0  0  0  0  0  0  0
   28.0920   12.0820   19.9270 H   0  0  0  0  0  0  0  0  0  0  0  0
   27.2060    9.8140   19.1610 H   0  0  0  0  0  0  0  0  0  0  0  0
   27.0940    9.4130   20.8910 H   0  0  0  0  0  0  0  0  0  0  0  0
   27.7760   13.8800   20.9470 H   0  0  0  0  0  0  0  0  0  0  0  0
   29.0040   14.9320   21.6920 H   0  0  0  0  0  0  0  0  0  0  0  0
   25.1010   15.4010   25.8710 H   0  0  0  0  0  0  0  0  0  0  0  0
   29.9680   18.1410   25.5520 H   0  0  0  0  0  0  0  0  0  0  0  0
   30.1700   16.6300   24.6330 H   0  0  0  0  0  0  0  0  0  0  0  0
   31.1510   16.9240   26.0890 H   0  0  0  0  0  0  0  0  0  0  0  0
   26.0430   17.8750   25.0590 H   0  0  0  0  0  0  0  0  0  0  0  0
   27.7120   18.4940   25.0320 H   0  0  0  0  0  0  0  0  0  0  0  0
   26.8340   18.3690   26.5750 H   0  0  0  0  0  0  0  0  0  0  0  0
   30.3690   10.3210   22.1350 H   0  0  0  0  0  0  0  0  0  0  0  0
   28.8690    9.4590   22.5560 H   0  0  0  0  0  0  0  0  0  0  0  0
   29.5370   10.6790   23.6670 H   0  0  0  0  0  0  0  0  0  0  0  0
   20.1230   10.4150   23.4410 H   0  0  0  0  0  0  0  0  0  0  0  0
   20.9600   10.0450   24.9680 H   0  0  0  0  0  0  0  0  0  0  0  0
   20.9020    8.8310   23.6680 H   0  0  0  0  0  0  0  0  0  0  0  0
   24.2840   10.0540   23.5920 H   0  0  0  0  0  0  0  0  0  0  0  0
   23.3170    8.7270   23.7460 H   0  0  0  0  0  0  0  0  0  0  0  0
   23.3710    9.8520   24.9510 H   0  0  0  0  0  0  0  0  0  0  0  0
  1  2  1  0  0  0  0
  1  6  1  0  0  0  0
  1 20  2  0  0  0  0
  2 17  2  0  0  0  0
  2 33  1  0  0  0  0
  3  4  2  0  0  0  0
  3 10  1  0  0  0  0
  3 34  1  0  0  0  0
  4  7  1  0  0  0  0
  4 35  1  0  0  0  0
  5  6  1  0  0  0  0
  5 29  1  0  0  0  0
  6 36  1  0  0  0  0
  6 37  1  0  0  0  0
  7  8  1  0  0  0  0
  7 12  2  0  0  0  0
  8  9  1  0  0  0  0
  8 38  1  0  0  0  0
  8 39  1  0  0  0  0
  9 29  1  0  0  0  0
  9 31  1  0  0  0  0
  9 32  1  0  0  0  0
 10 11  2  0  0  0  0
 10 40  1  0  0  0  0
 11 12  1  0  0  0  0
 11 16  1  0  0  0  0
 12 41  1  0  0  0  0
 13 14  1  0  0  0  0
 13 18  1  0  0  0  0
 13 42  1  0  0  0  0
 13 43  1  0  0  0  0
 14 15  1  0  0  0  0
 14 28  1  0  0  0  0
 14 44  1  0  0  0  0
 15 16  1  0  0  0  0
 15 45  1  0  0  0  0
 15 46  1  0  0  0  0
 16 47  1  0  0  0  0
 16 48  1  0  0  0  0
 17 18  1  0  0  0  0
 17 19  1  0  0  0  0
 18 49  1  0  0  0  0
 18 50  1  0  0  0  0
 19 21  2  0  0  0  0
 20 21  1  0  0  0  0
 20 51  1  0  0  0  0
 21 22  1  0  0  0  0
 22 23  1  0  0  0  0
 22 27  1  0  0  0  0
 23 24  1  0  0  0  0
 23 25  2  0  0  0  0
 23 26  2  0  0  0  0
 24 52  1  0  0  0  0
 24 53  1  0  0  0  0
 24 54  1  0  0  0  0
 27 55  1  0  0  0  0
 27 56  1  0  0  0  0
 27 57  1  0  0  0  0
 28 58  1  0  0  0  0
 28 59  1  0  0  0  0
 28 60  1  0  0  0  0
 29 30  2  0  0  0  0
 31 61  1  0  0  0  0
 31 62  1  0  0  0  0
 31 63  1  0  0  0  0
 32 64  1  0  0  0  0
 32 65  1  0  0  0  0
 32 66  1  0  0  0  0
M  CHG  1  32   1
M  END
>  <PARENT_CMPD_ID>
2PH8

>  <STANDARD_TYPE>
IC50

>  <RELATION>
=

>  <STANDARD_VALUE>
1.8

>  <STANDARD_UNITS>
uM

>  <COMPOUND_KEY>
4b

>  <PUBMED_ID>
17827011

>  <JOURNAL>
Bioorg.Med.Chem.Lett.

>  <YEAR>
2007

>  <VOLUME>
17

>  <FIRST_PAGE>
5831

>  <Company>
Merck

>  <Resolution>
1.7

>  <idx>
149

>  <Model>
Train

>  <target>
5.7447276

>  <des_pred_mlr>
6.48943

>  <RF_Canvas>
6.2304907

>  <DNN_Canvas>
5.9390173

>  <pred_CoMFA>
6.4473

>  <pred_COMSIA>
5.9292998

>  <pred_abm5>
6.3685265

>  <pred_ff8>
6.1433749

>  <pred_gau6>
6.6704841

>  <CID>
BACE_149

>  <active>
0

>  <des_class_bayes>
0

>  <maacs_class_bayes>
1

>  <radial_class_bayes>
0

>  <dend_class_bayes>
0

>  <molprint_class_bayes>
0

>  <RF_canvas>
0

>  <DNN_canvas>
0

$$$$
2VIY_1011
  MOE2015           3D

 86 88  0  0  1  0  0  0  0  0999 V2000
   24.4440   12.8380   23.3500 C   0  0  0  0  0  0  0  0  0  0  0  0
   24.3140   11.4830   23.2410 N   0  0  0  0  0  0  0  0  0  0  0  0
   23.1050   10.8110   22.7270 C   0  0  3  0  0  0  0  0  0  0  0  0
   22.4930   10.0540   23.9140 C   0  0  3  0  0  0  0  0  0  0  0  0
   23.4830    9.8720   21.5540 C   0  0  0  0  0  0  0  0  0  0  0  0
   23.4600   13.5880   23.3360 O   0  0  0  0  0  0  0  0  0  0  0  0
   25.8320   13.3070   23.4960 C   0  0  0  0  0  0  0  0  0  0  0  0
   26.8640   12.8830   22.6060 C   0  0  0  0  0  0  0  0  0  0  0  0
   28.1930   13.3410   22.7790 C   0  0  0  0  0  0  0  0  0  0  0  0
   28.5090   14.2200   23.8380 C   0  0  0  0  0  0  0  0  0  0  0  0
   27.4930   14.6470   24.7260 C   0  0  0  0  0  0  0  0  0  0  0  0
   26.1570   14.1950   24.5610 C   0  0  0  0  0  0  0  0  0  0  0  0
   24.3730   10.5190   20.5140 C   0  0  0  0  0  0  0  0  0  0  0  0
   25.6150    9.9230   20.1590 C   0  0  0  0  0  0  0  0  0  0  0  0
   26.4490   10.5290   19.1880 C   0  0  0  0  0  0  0  0  0  0  0  0
   26.0490   11.7350   18.5640 C   0  0  0  0  0  0  0  0  0  0  0  0
   24.8140   12.3370   18.9110 C   0  0  0  0  0  0  0  0  0  0  0  0
   23.9800   11.7320   19.8800 C   0  0  0  0  0  0  0  0  0  0  0  0
   21.3280    9.3520   23.5530 O   0  0  0  0  0  0  0  0  0  0  0  0
   20.2680   10.9580   26.8260 C   0  0  3  0  0  0  0  0  0  0  0  0
   22.1280   11.0050   25.0660 C   0  0  0  0  0  0  0  0  0  0  0  0
   21.3290   10.2910   26.0510 N   0  3  0  0  0  0  0  0  0  0  0  0
   27.9150   15.7380   26.0610 S   0  0  0  0  0  0  0  0  0  0  0  0
   20.8840   12.0290   27.7510 C   0  0  0  0  0  0  0  0  0  0  0  0
   19.2100   11.6000   25.8790 C   0  0  0  0  0  0  0  0  0  0  0  0
   18.2460   10.7260   25.5340 N   0  0  0  0  0  0  0  0  0  0  0  0
   17.1650   11.0500   24.6010 C   0  0  0  0  0  0  0  0  0  0  0  0
   19.2870   12.7680   25.4940 O   0  0  0  0  0  0  0  0  0  0  0  0
   15.8860   11.3740   25.4050 C   0  0  0  0  0  0  0  0  0  0  0  0
   14.6970   11.6950   24.4140 C   0  0  0  0  0  0  0  0  0  0  0  0
   14.4620   10.5660   23.3780 C   0  0  0  0  0  0  0  0  0  0  0  0
   15.7720   10.1620   22.6500 C   0  0  0  0  0  0  0  0  0  0  0  0
   16.9220    9.8590   23.6470 C   0  0  0  0  0  0  0  0  0  0  0  0
   28.4880   17.2110   25.2220 C   0  0  0  0  0  0  0  0  0  0  0  0
   28.9130   18.2500   26.2680 C   0  0  0  0  0  0  0  0  0  0  0  0
   29.4400   19.5540   25.6520 C   0  0  0  0  0  0  0  0  0  0  0  0
   29.8630   20.5690   26.7230 C   0  0  0  0  0  0  0  0  0  0  0  0
   30.3940   21.8740   26.1140 C   0  0  0  0  0  0  0  0  0  0  0  0
   29.0320   15.1580   26.7590 O   0  0  0  0  0  0  0  0  0  0  0  0
   26.7260   16.0240   26.8000 O   0  0  0  0  0  0  0  0  0  0  0  0
   25.0920   10.9070   23.5290 H   0  0  0  0  0  0  0  0  0  0  0  0
   22.3770   11.5170   22.3280 H   0  0  0  0  0  0  0  0  0  0  0  0
   23.2590    9.3490   24.2370 H   0  0  0  0  0  0  0  0  0  0  0  0
   22.5650    9.5460   21.0650 H   0  0  0  0  0  0  0  0  0  0  0  0
   24.0050    9.0060   21.9620 H   0  0  0  0  0  0  0  0  0  0  0  0
   26.6300   12.2090   21.7950 H   0  0  0  0  0  0  0  0  0  0  0  0
   28.9670   13.0170   22.0990 H   0  0  0  0  0  0  0  0  0  0  0  0
   29.5240   14.5660   23.9700 H   0  0  0  0  0  0  0  0  0  0  0  0
   25.3870   14.5250   25.2430 H   0  0  0  0  0  0  0  0  0  0  0  0
   25.9240    9.0030   20.6330 H   0  0  0  0  0  0  0  0  0  0  0  0
   27.3910   10.0710   18.9230 H   0  0  0  0  0  0  0  0  0  0  0  0
   26.6850   12.1960   17.8230 H   0  0  0  0  0  0  0  0  0  0  0  0
   24.5100   13.2580   18.4360 H   0  0  0  0  0  0  0  0  0  0  0  0
   23.0390   12.1930   20.1410 H   0  0  0  0  0  0  0  0  0  0  0  0
   20.6750    9.9980   23.2750 H   0  0  0  0  0  0  0  0  0  0  0  0
   19.7640   10.2100   27.4380 H   0  0  0  0  0  0  0  0  0  0  0  0
   21.5560   11.8460   24.6750 H   0  0  0  0  0  0  0  0  0  0  0  0
   23.0400   11.3730   25.5360 H   0  0  0  0  0  0  0  0  0  0  0  0
   20.8830    9.5310   25.5570 H   0  0  0  0  0  0  0  0  0  0  0  0
   21.9800    9.9170   26.7260 H   0  0  0  0  0  0  0  0  0  0  0  0
   21.3910   12.7820   27.1480 H   0  0  0  0  0  0  0  0  0  0  0  0
   21.6020   11.5590   28.4240 H   0  0  0  0  0  0  0  0  0  0  0  0
   20.0950   12.5020   28.3350 H   0  0  0  0  0  0  0  0  0  0  0  0
   18.2700    9.8010   25.9390 H   0  0  0  0  0  0  0  0  0  0  0  0
   17.4390   11.9180   24.0020 H   0  0  0  0  0  0  0  0  0  0  0  0
   16.0690   12.2390   26.0430 H   0  0  0  0  0  0  0  0  0  0  0  0
   15.6200   10.5160   26.0230 H   0  0  0  0  0  0  0  0  0  0  0  0
   14.9270   12.6170   23.8800 H   0  0  0  0  0  0  0  0  0  0  0  0
   13.7850   11.8300   24.9950 H   0  0  0  0  0  0  0  0  0  0  0  0
   13.7410   10.9120   22.6380 H   0  0  0  0  0  0  0  0  0  0  0  0
   14.0630    9.6930   23.8940 H   0  0  0  0  0  0  0  0  0  0  0  0
   16.0780   10.9800   21.9970 H   0  0  0  0  0  0  0  0  0  0  0  0
   15.5810    9.2710   22.0510 H   0  0  0  0  0  0  0  0  0  0  0  0
   16.6590    8.9800   24.2360 H   0  0  0  0  0  0  0  0  0  0  0  0
   17.8350    9.6610   23.0860 H   0  0  0  0  0  0  0  0  0  0  0  0
   27.6840   17.6180   24.6090 H   0  0  0  0  0  0  0  0  0  0  0  0
   29.3390   16.9620   24.5880 H   0  0  0  0  0  0  0  0  0  0  0  0
   29.7000   17.8170   26.8860 H   0  0  0  0  0  0  0  0  0  0  0  0
   28.0500   18.4860   26.8910 H   0  0  0  0  0  0  0  0  0  0  0  0
   28.6540   19.9960   25.0400 H   0  0  0  0  0  0  0  0  0  0  0  0
   30.3020   19.3240   25.0260 H   0  0  0  0  0  0  0  0  0  0  0  0
   30.6470   20.1250   27.3370 H   0  0  0  0  0  0  0  0  0  0  0  0
   29.0000   20.8000   27.3470 H   0  0  0  0  0  0  0  0  0  0  0  0
   31.2590   21.6570   25.4870 H   0  0  0  0  0  0  0  0  0  0  0  0
   30.6870   22.5550   26.9130 H   0  0  0  0  0  0  0  0  0  0  0  0
   29.6140   22.3370   25.5100 H   0  0  0  0  0  0  0  0  0  0  0  0
  1  2  1  0  0  0  0
  1  6  2  0  0  0  0
  1  7  1  0  0  0  0
  2  3  1  0  0  0  0
  2 41  1  0  0  0  0
  3  4  1  0  0  0  0
  3  5  1  0  0  0  0
  3 42  1  0  0  0  0
  4 19  1  0  0  0  0
  4 21  1  0  0  0  0
  4 43  1  0  0  0  0
  5 13  1  0  0  0  0
  5 44  1  0  0  0  0
  5 45  1  0  0  0  0
  7  8  1  0  0  0  0
  7 12  2  0  0  0  0
  8  9  2  0  0  0  0
  8 46  1  0  0  0  0
  9 10  1  0  0  0  0
  9 47  1  0  0  0  0
 10 11  2  0  0  0  0
 10 48  1  0  0  0  0
 11 12  1  0  0  0  0
 11 23  1  0  0  0  0
 12 49  1  0  0  0  0
 13 14  1  0  0  0  0
 13 18  2  0  0  0  0
 14 15  2  0  0  0  0
 14 50  1  0  0  0  0
 15 16  1  0  0  0  0
 15 51  1  0  0  0  0
 16 17  2  0  0  0  0
 16 52  1  0  0  0  0
 17 18  1  0  0  0  0
 17 53  1  0  0  0  0
 18 54  1  0  0  0  0
 19 55  1  0  0  0  0
 20 22  1  0  0  0  0
 20 24  1  0  0  0  0
 20 25  1  0  0  0  0
 20 56  1  0  0  0  0
 21 22  1  0  0  0  0
 21 57  1  0  0  0  0
 21 58  1  0  0  0  0
 22 59  1  0  0  0  0
 22 60  1  0  0  0  0
 23 34  1  0  0  0  0
 23 39  2  0  0  0  0
 23 40  2  0  0  0  0
 24 61  1  0  0  0  0
 24 62  1  0  0  0  0
 24 63  1  0  0  0  0
 25 26  1  0  0  0  0
 25 28  2  0  0  0  0
 26 27  1  0  0  0  0
 26 64  1  0  0  0  0
 27 29  1  0  0  0  0
 27 33  1  0  0  0  0
 27 65  1  0  0  0  0
 29 30  1  0  0  0  0
 29 66  1  0  0  0  0
 29 67  1  0  0  0  0
 30 31  1  0  0  0  0
 30 68  1  0  0  0  0
 30 69  1  0  0  0  0
 31 32  1  0  0  0  0
 31 70  1  0  0  0  0
 31 71  1  0  0  0  0
 32 33  1  0  0  0  0
 32 72  1  0  0  0  0
 32 73  1  0  0  0  0
 33 74  1  0  0  0  0
 33 75  1  0  0  0  0
 34 35  1  0  0  0  0
 34 76  1  0  0  0  0
 34 77  1  0  0  0  0
 35 36  1  0  0  0  0
 35 78  1  0  0  0  0
 35 79  1  0  0  0  0
 36 37  1  0  0  0  0
 36 80  1  0  0  0  0
 36 81  1  0  0  0  0
 37 38  1  0  0  0  0
 37 82  1  0  0  0  0
 37 83  1  0  0  0  0
 38 84  1  0  0  0  0
 38 85  1  0  0  0  0
 38 86  1  0  0  0  0
M  CHG  1  22   1
M  END
>  <PARENT_CMPD_ID>
2VIY

>  <STANDARD_TYPE>
IC50

>  <RELATION>
=

>  <STANDARD_VALUE>
1.8

>  <STANDARD_UNITS>
uM

>  <COMPOUND_KEY>
14

>  <PUBMED_ID>
18171614

>  <JOURNAL>
Bioorg.Med.Chem.Lett.

>  <YEAR>
2008

>  <VOLUME>
18

>  <FIRST_PAGE>
1011

>  <Company>
GSK

>  <Resolution>
1.8200001

>  <idx>
150

>  <Model>
Train

>  <target>
5.7447276

>  <des_pred_mlr>
7.0778198

>  <RF_Canvas>
6.2057557

>  <DNN_Canvas>
6.463747

>  <pred_CoMFA>
6.0858998

>  <pred_COMSIA>
6.2129998

>  <pred_abm5>
6.0990081

>  <pred_ff8>
7.1218314

>  <pred_gau6>
6.2370505

>  <CID>
BACE_150

>  <active>
0

>  <des_class_bayes>
1

>  <maacs_class_bayes>
0

>  <radial_class_bayes>
0

>  <dend_class_bayes>
0

>  <molprint_class_bayes>
0

>  <RF_canvas>
0

>  <DNN_canvas>
0

$$$$
4FM8_9224
  MOE2015           3D

 65 68  0  0  1  0  0  0  0  0999 V2000
   22.8340   12.2790   24.4800 C   0  0  0  0  0  0  0  0  0  0  0  0
   23.4680   13.1060   24.7980 H   0  0  0  0  0  0  0  0  0  0  0  0
   22.5780   11.6650   25.3430 H   0  0  0  0  0  0  0  0  0  0  0  0
   23.6360   11.4200   23.5170 C   0  0  0  0  0  0  0  0  0  0  0  0
   24.3810   10.8620   24.0840 H   0  0  0  0  0  0  0  0  0  0  0  0
   24.1370   12.0720   22.8020 H   0  0  0  0  0  0  0  0  0  0  0  0
   22.7760   10.4470   22.7620 N   0  3  3  0  0  0  0  0  0  0  0  0
   22.4180    9.8140   23.4630 H   0  0  0  0  0  0  0  0  0  0  0  0
   21.4960   11.0100   22.1790 C   0  0  3  0  0  0  0  0  0  0  0  0
   21.7940   11.6770   21.3700 H   0  0  0  0  0  0  0  0  0  0  0  0
   20.7050   11.8220   23.1950 C   0  0  0  0  0  0  0  0  0  0  0  0
   20.2880   11.1380   23.9340 H   0  0  0  0  0  0  0  0  0  0  0  0
   19.8940   12.3310   22.6740 H   0  0  0  0  0  0  0  0  0  0  0  0
   21.5410   12.8670   23.9230 C   0  0  3  0  0  0  0  0  0  0  0  0
   20.6250    9.9130   21.6320 C   0  0  0  0  0  0  0  0  0  0  0  0
   20.3280    9.2470   22.4420 H   0  0  0  0  0  0  0  0  0  0  0  0
   21.1800    9.3480   20.8830 H   0  0  0  0  0  0  0  0  0  0  0  0
   19.7360   10.3480   21.1750 H   0  0  0  0  0  0  0  0  0  0  0  0
   21.6690   14.1170   23.1130 N   0  0  0  0  0  0  0  0  0  0  0  0
   20.6980   13.3220   25.1040 C   0  0  0  0  0  0  0  0  0  0  0  0
   20.8500   12.6530   25.9510 H   0  0  0  0  0  0  0  0  0  0  0  0
   19.6430   13.3260   24.8290 H   0  0  0  0  0  0  0  0  0  0  0  0
   22.3230   14.3140   21.8410 C   0  0  0  0  0  0  0  0  0  0  0  0
   23.6700   14.4940   21.5820 C   0  0  0  0  0  0  0  0  0  0  0  0
   24.3860   14.4760   22.3910 H   0  0  0  0  0  0  0  0  0  0  0  0
   24.0960   14.6980   20.2800 C   0  0  0  0  0  0  0  0  0  0  0  0
   25.1490   14.8200   20.0730 H   0  0  0  0  0  0  0  0  0  0  0  0
   23.1770   14.7460   19.2390 C   0  0  0  0  0  0  0  0  0  0  0  0
   23.5070   14.9180   18.2250 H   0  0  0  0  0  0  0  0  0  0  0  0
   21.8350   14.5710   19.5190 C   0  0  0  0  0  0  0  0  0  0  0  0
   21.4120   14.3580   20.8080 C   0  0  0  0  0  0  0  0  0  0  0  0
   20.3600   14.2240   21.0130 H   0  0  0  0  0  0  0  0  0  0  0  0
   20.8810   14.5960   18.5810 F   0  0  0  0  0  0  0  0  0  0  0  0
   23.5900    9.6200   21.7960 C   0  0  0  0  0  0  0  0  0  0  0  0
   22.9220    8.8890   21.3400 H   0  0  0  0  0  0  0  0  0  0  0  0
   24.3590    9.1020   22.3690 H   0  0  0  0  0  0  0  0  0  0  0  0
   24.2700   10.3650   20.6930 C   0  0  0  0  0  0  0  0  0  0  0  0
   25.5460   10.8430   20.8940 C   0  0  0  0  0  0  0  0  0  0  0  0
   26.0380   10.6740   21.8400 H   0  0  0  0  0  0  0  0  0  0  0  0
   26.2020   11.5370   19.8940 C   0  0  0  0  0  0  0  0  0  0  0  0
   25.5820   11.7500   18.6760 C   0  0  0  0  0  0  0  0  0  0  0  0
   26.0900   12.2970   17.8960 H   0  0  0  0  0  0  0  0  0  0  0  0
   24.3100   11.2590   18.4640 C   0  0  0  0  0  0  0  0  0  0  0  0
   23.8200   11.4190   17.5150 H   0  0  0  0  0  0  0  0  0  0  0  0
   23.6660   10.5650   19.4640 C   0  0  0  0  0  0  0  0  0  0  0  0
   22.6760   10.1710   19.2870 H   0  0  0  0  0  0  0  0  0  0  0  0
   27.4930   12.0580   20.0350 O   0  0  0  0  0  0  0  0  0  0  0  0
   28.3080   11.4430   21.0220 C   0  0  0  0  0  0  0  0  0  0  0  0
   27.7740   11.3580   21.9680 H   0  0  0  0  0  0  0  0  0  0  0  0
   28.7080   10.0310   20.6130 C   0  0  0  0  0  0  0  0  0  0  0  0
   29.2480   10.0660   19.6670 H   0  0  0  0  0  0  0  0  0  0  0  0
   27.8140    9.4190   20.4990 H   0  0  0  0  0  0  0  0  0  0  0  0
   29.3490    9.5980   21.3810 H   0  0  0  0  0  0  0  0  0  0  0  0
   29.5520   12.3190   21.1280 C   0  0  0  0  0  0  0  0  0  0  0  0
   30.0450   12.3690   20.1570 H   0  0  0  0  0  0  0  0  0  0  0  0
   30.2360   11.8910   21.8610 H   0  0  0  0  0  0  0  0  0  0  0  0
   29.2640   13.3220   21.4420 H   0  0  0  0  0  0  0  0  0  0  0  0
   21.6350   15.5330   24.0660 S   0  0  0  0  0  0  0  0  0  0  0  0
   21.1330   14.6880   25.4560 N   0  0  0  0  0  0  0  0  0  0  0  0
   20.5520   16.3070   23.4850 O   0  0  0  0  0  0  0  0  0  0  0  0
   20.1540   15.3680   26.3290 C   0  0  0  0  0  0  0  0  0  0  0  0
   19.9170   14.7260   27.1770 H   0  0  0  0  0  0  0  0  0  0  0  0
   19.2450   15.5740   25.7640 H   0  0  0  0  0  0  0  0  0  0  0  0
   20.5780   16.3050   26.6900 H   0  0  0  0  0  0  0  0  0  0  0  0
   22.9400   16.1120   24.2860 O   0  0  0  0  0  0  0  0  0  0  0  0
  1  2  1  0  0  0  0
  1  3  1  0  0  0  0
  1  4  1  0  0  0  0
  1 14  1  0  0  0  0
  4  5  1  0  0  0  0
  4  6  1  0  0  0  0
  4  7  1  0  0  0  0
  7  8  1  0  0  0  0
  7  9  1  0  0  0  0
  7 34  1  0  0  0  0
  9 10  1  0  0  0  0
  9 11  1  0  0  0  0
  9 15  1  0  0  0  0
 11 12  1  0  0  0  0
 11 13  1  0  0  0  0
 11 14  1  0  0  0  0
 14 19  1  0  0  0  0
 14 20  1  0  0  0  0
 15 16  1  0  0  0  0
 15 17  1  0  0  0  0
 15 18  1  0  0  0  0
 19 23  1  0  0  0  0
 19 58  1  0  0  0  0
 20 21  1  0  0  0  0
 20 22  1  0  0  0  0
 20 59  1  0  0  0  0
 23 24  1  0  0  0  0
 23 31  2  0  0  0  0
 24 25  1  0  0  0  0
 24 26  2  0  0  0  0
 26 27  1  0  0  0  0
 26 28  1  0  0  0  0
 28 29  1  0  0  0  0
 28 30  2  0  0  0  0
 30 31  1  0  0  0  0
 30 33  1  0  0  0  0
 31 32  1  0  0  0  0
 34 35  1  0  0  0  0
 34 36  1  0  0  0  0
 34 37  1  0  0  0  0
 37 38  1  0  0  0  0
 37 45  2  0  0  0  0
 38 39  1  0  0  0  0
 38 40  2  0  0  0  0
 40 41  1  0  0  0  0
 40 47  1  0  0  0  0
 41 42  1  0  0  0  0
 41 43  2  0  0  0  0
 43 44  1  0  0  0  0
 43 45  1  0  0  0  0
 45 46  1  0  0  0  0
 47 48  1  0  0  0  0
 48 49  1  0  0  0  0
 48 50  1  0  0  0  0
 48 54  1  0  0  0  0
 50 51  1  0  0  0  0
 50 52  1  0  0  0  0
 50 53  1  0  0  0  0
 54 55  1  0  0  0  0
 54 56  1  0  0  0  0
 54 57  1  0  0  0  0
 58 59  1  0  0  0  0
 58 60  2  0  0  0  0
 58 65  2  0  0  0  0
 59 61  1  0  0  0  0
 61 62  1  0  0  0  0
 61 63  1  0  0  0  0
 61 64  1  0  0  0  0
M  CHG  1   7   1
M  END
>  <PARENT_CMPD_ID>
4FM8

>  <STANDARD_TYPE>
IC50

>  <RELATION>
=

>  <STANDARD_VALUE>
2.4000001

>  <STANDARD_UNITS>
uM

>  <COMPOUND_KEY>
12a

>  <PUBMED_ID>
22984865

>  <JOURNAL>
J.Med.Chem.

>  <YEAR>
2012

>  <VOLUME>
55

>  <FIRST_PAGE>
9224

>  <Company>
Pfizer

>  <Resolution>
1.9

>  <idx>
151

>  <Model>
Train

>  <target>
5.6197886

>  <des_pred_mlr>
6.5606599

>  <RF_Canvas>
6.1260076

>  <DNN_Canvas>
5.7272425

>  <pred_CoMFA>
6.1004

>  <pred_COMSIA>
6.2926002

>  <pred_abm5>
6.353776

>  <pred_ff8>
5.605022

>  <pred_gau6>
6.1778212

>  <CID>
BACE_151

>  <active>
0

>  <des_class_bayes>
1

>  <maacs_class_bayes>
1

>  <radial_class_bayes>
0

>  <dend_class_bayes>
0

>  <molprint_class_bayes>
1

>  <RF_canvas>
0

>  <DNN_canvas>
0

$$$$
3FKT_6259
  MOE2015           3D

 71 75  0  0  0  0  0  0  0  0999 V2000
   24.7440   12.0170   18.3530 C   0  0  0  0  0  0  0  0  0  0  0  0
   26.0440   12.5100   18.5510 C   0  0  0  0  0  0  0  0  0  0  0  0
   26.8190   12.2230   19.6880 C   0  0  0  0  0  0  0  0  0  0  0  0
   24.3050   10.0310   21.5280 C   0  0  0  0  0  0  0  0  0  0  0  0
   27.3170   14.4990   17.7080 C   0  0  0  0  0  0  0  0  0  0  0  0
   27.4000   15.4830   16.5560 C   0  0  0  0  0  0  0  0  0  0  0  0
   22.3410   14.7310   20.6750 C   0  0  0  0  0  0  0  0  0  0  0  0
   23.0480   14.7660   21.8810 C   0  0  0  0  0  0  0  0  0  0  0  0
   24.4020   15.1230   21.9090 C   0  0  0  0  0  0  0  0  0  0  0  0
   25.1060   15.4370   20.7470 C   0  0  0  0  0  0  0  0  0  0  0  0
   24.4170   15.3950   19.5390 C   0  0  0  0  0  0  0  0  0  0  0  0
   23.0670   15.0460   19.5280 C   0  0  0  0  0  0  0  0  0  0  0  0
   23.5520   12.7170   24.3390 C   0  0  0  0  0  0  0  0  0  0  0  0
   22.1860   11.3340   21.9780 C   0  0  0  0  0  0  0  0  0  0  0  0
   24.2620   11.7840   23.3350 C   0  0  0  0  0  0  0  0  0  0  0  0
   21.3440   13.7920   24.8970 C   0  0  0  0  0  0  0  0  0  0  0  0
   21.6730   15.4850   23.6560 C   0  0  0  0  0  0  0  0  0  0  0  0
   18.6650   13.7280   27.1190 C   0  0  0  0  0  0  0  0  0  0  0  0
   19.9900   13.2920   29.7820 C   0  0  0  0  0  0  0  0  0  0  0  0
   22.3790   14.9990   18.4030 F   0  0  0  0  0  0  0  0  0  0  0  0
   26.4670   13.3050   17.5510 N   0  0  0  0  0  0  0  0  0  0  0  0
   27.9630   14.7170   18.7170 O   0  0  0  0  0  0  0  0  0  0  0  0
   23.4490   10.7910   22.5310 N   0  3  0  0  0  0  0  0  0  0  0  0
   21.5130   16.6310   23.2420 O   0  0  0  0  0  0  0  0  0  0  0  0
   22.3580   14.4900   23.0050 N   0  0  0  0  0  0  0  0  0  0  0  0
   26.2570   11.3940   20.6720 C   0  0  0  0  0  0  0  0  0  0  0  0
   21.1980   15.0790   24.8460 N   0  0  0  0  0  0  0  0  0  0  0  0
   24.9550   10.8960   20.4690 C   0  0  0  0  0  0  0  0  0  0  0  0
   21.0180   13.0440   26.1150 N   0  0  0  0  0  0  0  0  0  0  0  0
   24.1950   11.1870   19.3380 C   0  0  0  0  0  0  0  0  0  0  0  0
   22.2230   13.2490   23.7690 C   0  0  0  0  0  0  0  0  0  0  0  0
   21.4310   12.1190   23.0600 C   0  0  0  0  0  0  0  0  0  0  0  0
   17.8050   13.3340   28.3230 C   0  0  0  0  0  0  0  0  0  0  0  0
   20.0130   13.0190   27.1730 C   0  0  0  0  0  0  0  0  0  0  0  0
   20.7770   13.3370   28.4570 C   0  0  0  0  0  0  0  0  0  0  0  0
   18.4890   13.5820   29.6740 C   0  0  0  0  0  0  0  0  0  0  0  0
   24.1830   12.2710   17.4660 H   0  0  0  0  0  0  0  0  0  0  0  0
   27.8140   12.6270   19.8010 H   0  0  0  0  0  0  0  0  0  0  0  0
   23.6720    9.2990   21.0270 H   0  0  0  0  0  0  0  0  0  0  0  0
   25.0930    9.5150   22.0760 H   0  0  0  0  0  0  0  0  0  0  0  0
   26.7660   15.1400   15.7390 H   0  0  0  0  0  0  0  0  0  0  0  0
   28.4320   15.5520   16.2110 H   0  0  0  0  0  0  0  0  0  0  0  0
   27.0620   16.4640   16.8910 H   0  0  0  0  0  0  0  0  0  0  0  0
   21.2930   14.4750   20.6350 H   0  0  0  0  0  0  0  0  0  0  0  0
   24.9160   15.1560   22.8580 H   0  0  0  0  0  0  0  0  0  0  0  0
   26.1520   15.7040   20.7840 H   0  0  0  0  0  0  0  0  0  0  0  0
   24.9250   15.6310   18.6150 H   0  0  0  0  0  0  0  0  0  0  0  0
   24.2050   13.5610   24.5620 H   0  0  0  0  0  0  0  0  0  0  0  0
   23.3480   12.1630   25.2550 H   0  0  0  0  0  0  0  0  0  0  0  0
   21.5620   10.5110   21.6280 H   0  0  0  0  0  0  0  0  0  0  0  0
   22.4140   11.9980   21.1440 H   0  0  0  0  0  0  0  0  0  0  0  0
   24.9940   11.2080   23.9010 H   0  0  0  0  0  0  0  0  0  0  0  0
   24.7780   12.4240   22.6190 H   0  0  0  0  0  0  0  0  0  0  0  0
   18.8260   14.8060   27.1300 H   0  0  0  0  0  0  0  0  0  0  0  0
   18.1480   13.4470   26.2010 H   0  0  0  0  0  0  0  0  0  0  0  0
   20.4260   14.0300   30.4560 H   0  0  0  0  0  0  0  0  0  0  0  0
   20.1090   12.2960   30.2080 H   0  0  0  0  0  0  0  0  0  0  0  0
   26.1780   13.0630   16.6140 H   0  0  0  0  0  0  0  0  0  0  0  0
   23.1230   10.1010   23.1930 H   0  0  0  0  0  0  0  0  0  0  0  0
   26.8110   11.1440   21.5650 H   0  0  0  0  0  0  0  0  0  0  0  0
   21.7040   12.3190   26.2710 H   0  0  0  0  0  0  0  0  0  0  0  0
   23.2010   10.7800   19.2230 H   0  0  0  0  0  0  0  0  0  0  0  0
   21.1110   11.4090   23.8230 H   0  0  0  0  0  0  0  0  0  0  0  0
   20.5550   12.5700   22.5930 H   0  0  0  0  0  0  0  0  0  0  0  0
   17.5700   12.2730   28.2460 H   0  0  0  0  0  0  0  0  0  0  0  0
   16.8830   13.9140   28.2920 H   0  0  0  0  0  0  0  0  0  0  0  0
   19.5760   12.0270   27.0580 H   0  0  0  0  0  0  0  0  0  0  0  0
   21.5940   12.6190   28.5380 H   0  0  0  0  0  0  0  0  0  0  0  0
   21.1860   14.3420   28.3540 H   0  0  0  0  0  0  0  0  0  0  0  0
   18.3430   14.6330   29.9240 H   0  0  0  0  0  0  0  0  0  0  0  0
   17.9840   12.9590   30.4130 H   0  0  0  0  0  0  0  0  0  0  0  0
  1  2  1  0  0  0  0
  1 30  2  0  0  0  0
  1 37  1  0  0  0  0
  2  3  2  0  0  0  0
  2 21  1  0  0  0  0
  3 26  1  0  0  0  0
  3 38  1  0  0  0  0
  4 23  1  0  0  0  0
  4 28  1  0  0  0  0
  4 39  1  0  0  0  0
  4 40  1  0  0  0  0
  5  6  1  0  0  0  0
  5 21  1  0  0  0  0
  5 22  2  0  0  0  0
  6 41  1  0  0  0  0
  6 42  1  0  0  0  0
  6 43  1  0  0  0  0
  7  8  1  0  0  0  0
  7 12  2  0  0  0  0
  7 44  1  0  0  0  0
  8  9  2  0  0  0  0
  8 25  1  0  0  0  0
  9 10  1  0  0  0  0
  9 45  1  0  0  0  0
 10 11  2  0  0  0  0
 10 46  1  0  0  0  0
 11 12  1  0  0  0  0
 11 47  1  0  0  0  0
 12 20  1  0  0  0  0
 13 15  1  0  0  0  0
 13 31  1  0  0  0  0
 13 48  1  0  0  0  0
 13 49  1  0  0  0  0
 14 23  1  0  0  0  0
 14 32  1  0  0  0  0
 14 50  1  0  0  0  0
 14 51  1  0  0  0  0
 15 23  1  0  0  0  0
 15 52  1  0  0  0  0
 15 53  1  0  0  0  0
 16 27  2  0  0  0  0
 16 29  1  0  0  0  0
 16 31  1  0  0  0  0
 17 24  2  0  0  0  0
 17 25  1  0  0  0  0
 17 27  1  0  0  0  0
 18 33  1  0  0  0  0
 18 34  1  0  0  0  0
 18 54  1  0  0  0  0
 18 55  1  0  0  0  0
 19 35  1  0  0  0  0
 19 36  1  0  0  0  0
 19 56  1  0  0  0  0
 19 57  1  0  0  0  0
 21 58  1  0  0  0  0
 23 59  1  0  0  0  0
 25 31  1  0  0  0  0
 26 28  2  0  0  0  0
 26 60  1  0  0  0  0
 28 30  1  0  0  0  0
 29 34  1  0  0  0  0
 29 61  1  0  0  0  0
 30 62  1  0  0  0  0
 31 32  1  0  0  0  0
 32 63  1  0  0  0  0
 32 64  1  0  0  0  0
 33 36  1  0  0  0  0
 33 65  1  0  0  0  0
 33 66  1  0  0  0  0
 34 35  1  0  0  0  0
 34 67  1  0  0  0  0
 35 68  1  0  0  0  0
 35 69  1  0  0  0  0
 36 70  1  0  0  0  0
 36 71  1  0  0  0  0
M  CHG  1  23   1
M  END
>  <PARENT_CMPD_ID>
3FKT

>  <STANDARD_TYPE>
IC50

>  <RELATION>
=

>  <STANDARD_VALUE>
2.8

>  <STANDARD_UNITS>
uM

>  <COMPOUND_KEY>
16

>  <PUBMED_ID>
18811140

>  <JOURNAL>
J.Med.Chem.

>  <YEAR>
2008

>  <VOLUME>
51

>  <FIRST_PAGE>
6259

>  <Company>
Merck

>  <Resolution>
1.9

>  <idx>
152

>  <Model>
Train

>  <target>
5.5528421

>  <des_pred_mlr>
6.7579899

>  <RF_Canvas>
6.2297273

>  <DNN_Canvas>
5.5598135

>  <pred_CoMFA>
6.0622001

>  <pred_COMSIA>
7.2968998

>  <pred_abm5>
6.3045254

>  <pred_ff8>
4.9006596

>  <pred_gau6>
6.9184084

>  <CID>
BACE_152

>  <active>
0

>  <des_class_bayes>
1

>  <maacs_class_bayes>
1

>  <radial_class_bayes>
0

>  <dend_class_bayes>
0

>  <molprint_class_bayes>
0

>  <RF_canvas>
0

>  <DNN_canvas>
0

$$$$
4FRI_9156
  MOE2015           3D

 45 48  0  0  1  0  0  0  0  0999 V2000
   16.3110    8.5220   19.6040 C   0  0  0  0  0  0  0  0  0  0  0  0
   15.3010    8.5400   19.1940 H   0  0  0  0  0  0  0  0  0  0  0  0
   16.2740    8.2080   20.6470 H   0  0  0  0  0  0  0  0  0  0  0  0
   16.9220    7.8210   19.0350 H   0  0  0  0  0  0  0  0  0  0  0  0
   16.8940    9.8550   19.5180 O   0  0  0  0  0  0  0  0  0  0  0  0
   18.1790   10.0140   19.9960 C   0  0  0  0  0  0  0  0  0  0  0  0
   18.6960   11.2980   20.1630 C   0  0  0  0  0  0  0  0  0  0  0  0
   18.0890   12.1570   19.9200 H   0  0  0  0  0  0  0  0  0  0  0  0
   20.0020   11.4800   20.6450 C   0  0  0  0  0  0  0  0  0  0  0  0
   20.3780   12.4850   20.7720 H   0  0  0  0  0  0  0  0  0  0  0  0
   19.0040    8.9280   20.2990 C   0  0  0  0  0  0  0  0  0  0  0  0
   18.6340    7.9230   20.1610 H   0  0  0  0  0  0  0  0  0  0  0  0
   20.3110    9.1260   20.7820 C   0  0  0  0  0  0  0  0  0  0  0  0
   20.9230    8.2670   21.0150 H   0  0  0  0  0  0  0  0  0  0  0  0
   20.8320   10.4000   20.9660 C   0  0  0  0  0  0  0  0  0  0  0  0
   22.2870   10.5950   21.5100 C   0  0  3  0  0  0  0  0  0  0  0  0
   22.4150   11.8170   22.4090 C   0  0  0  0  0  0  0  0  0  0  0  0
   21.5200   12.4360   22.3390 H   0  0  0  0  0  0  0  0  0  0  0  0
   23.2880   12.4070   22.1280 H   0  0  0  0  0  0  0  0  0  0  0  0
   22.5670   11.3000   23.7500 O   0  0  0  0  0  0  0  0  0  0  0  0
   22.7420    9.9500   23.6470 C   0  0  0  0  0  0  0  0  0  0  0  0
   22.6090    9.4810   22.4210 N   0  0  0  0  0  0  0  0  0  0  0  0
   22.9770    9.1780   24.6920 N   0  0  0  0  0  0  0  0  0  0  0  0
   23.0630    8.1790   24.5730 H   0  0  0  0  0  0  0  0  0  0  0  0
   23.0710    9.5870   25.6110 H   0  0  0  0  0  0  0  0  0  0  0  0
   23.3570   10.7180   20.4420 C   0  0  0  0  0  0  0  0  0  0  0  0
   24.6960   10.6130   20.7950 C   0  0  0  0  0  0  0  0  0  0  0  0
   24.9590   10.4380   21.8280 H   0  0  0  0  0  0  0  0  0  0  0  0
   23.0110   10.9510   19.1190 C   0  0  0  0  0  0  0  0  0  0  0  0
   21.9730   11.0350   18.8310 H   0  0  0  0  0  0  0  0  0  0  0  0
   24.0200   11.0750   18.1670 C   0  0  0  0  0  0  0  0  0  0  0  0
   23.7590   11.2490   17.1340 H   0  0  0  0  0  0  0  0  0  0  0  0
   25.3510   10.9790   18.5270 C   0  0  0  0  0  0  0  0  0  0  0  0
   26.1190   11.0990   17.7780 H   0  0  0  0  0  0  0  0  0  0  0  0
   25.7060   10.7290   19.8440 C   0  0  0  0  0  0  0  0  0  0  0  0
   27.0590   10.6510   20.2340 C   0  0  0  0  0  0  0  0  0  0  0  0
   27.9400   11.6680   19.8730 C   0  0  0  0  0  0  0  0  0  0  0  0
   27.5950   12.4890   19.2630 H   0  0  0  0  0  0  0  0  0  0  0  0
   29.2650   11.6270   20.2980 C   0  0  0  0  0  0  0  0  0  0  0  0
   29.9470   12.4170   20.0210 H   0  0  0  0  0  0  0  0  0  0  0  0
   29.7060   10.5680   21.0780 C   0  0  0  0  0  0  0  0  0  0  0  0
   30.7330   10.5190   21.4080 H   0  0  0  0  0  0  0  0  0  0  0  0
   28.8490    9.6220   21.4090 N   0  0  0  0  0  0  0  0  0  0  0  0
   27.5630    9.6220   21.0280 C   0  0  0  0  0  0  0  0  0  0  0  0
   26.7640    8.6040   21.4230 F   0  0  0  0  0  0  0  0  0  0  0  0
  1  2  1  0  0  0  0
  1  3  1  0  0  0  0
  1  4  1  0  0  0  0
  1  5  1  0  0  0  0
  5  6  1  0  0  0  0
  6  7  2  0  0  0  0
  6 11  1  0  0  0  0
  7  8  1  0  0  0  0
  7  9  1  0  0  0  0
  9 10  1  0  0  0  0
  9 15  2  0  0  0  0
 11 12  1  0  0  0  0
 11 13  2  0  0  0  0
 13 14  1  0  0  0  0
 13 15  1  0  0  0  0
 15 16  1  0  0  0  0
 16 17  1  0  0  0  0
 16 22  1  0  0  0  0
 16 26  1  0  0  0  0
 17 18  1  0  0  0  0
 17 19  1  0  0  0  0
 17 20  1  0  0  0  0
 20 21  1  0  0  0  0
 21 22  2  0  0  0  0
 21 23  1  0  0  0  0
 23 24  1  0  0  0  0
 23 25  1  0  0  0  0
 26 27  1  0  0  0  0
 26 29  2  0  0  0  0
 27 28  1  0  0  0  0
 27 35  2  0  0  0  0
 29 30  1  0  0  0  0
 29 31  1  0  0  0  0
 31 32  1  0  0  0  0
 31 33  2  0  0  0  0
 33 34  1  0  0  0  0
 33 35  1  0  0  0  0
 35 36  1  0  0  0  0
 36 37  1  0  0  0  0
 36 44  2  0  0  0  0
 37 38  1  0  0  0  0
 37 39  2  0  0  0  0
 39 40  1  0  0  0  0
 39 41  1  0  0  0  0
 41 42  1  0  0  0  0
 41 43  2  0  0  0  0
 43 44  1  0  0  0  0
 44 45  1  0  0  0  0
M  END
>  <PARENT_CMPD_ID>
4FRI

>  <STANDARD_TYPE>
IC50

>  <RELATION>
=

>  <STANDARD_VALUE>
2.8499999

>  <STANDARD_UNITS>
uM

>  <COMPOUND_KEY>
6

>  <PUBMED_ID>
22928914

>  <JOURNAL>
J.Med.Chem.

>  <YEAR>
2012

>  <VOLUME>
55

>  <FIRST_PAGE>
9156

>  <Company>
Amgen

>  <Resolution>
2.3

>  <idx>
153

>  <Model>
Train

>  <target>
5.545155

>  <des_pred_mlr>
6.5217099

>  <RF_Canvas>
5.9563475

>  <DNN_Canvas>
6.1049256

>  <pred_CoMFA>
6.4176002

>  <pred_COMSIA>
6.7638001

>  <pred_abm5>
6.2711644

>  <pred_ff8>
5.8656693

>  <pred_gau6>
6.3934808

>  <CID>
BACE_153

>  <active>
0

>  <des_class_bayes>
0

>  <maacs_class_bayes>
1

>  <radial_class_bayes>
0

>  <dend_class_bayes>
0

>  <molprint_class_bayes>
0

>  <RF_canvas>
0

>  <DNN_canvas>
0

$$$$
4B78_4181
  MOE2015           3D

 52 55  0  0  1  0  0  0  0  0999 V2000
   16.3740    8.4130   19.4590 C   0  0  0  0  0  0  0  0  0  0  0  0
   16.8800    9.7440   19.3410 O   0  0  0  0  0  0  0  0  0  0  0  0
   18.1570    9.8740   19.8710 C   0  0  0  0  0  0  0  0  0  0  0  0
   18.9870    8.8070   20.1360 C   0  0  0  0  0  0  0  0  0  0  0  0
   20.2360    9.0670   20.6790 C   0  0  0  0  0  0  0  0  0  0  0  0
   20.6810   10.3480   20.9640 C   0  0  0  0  0  0  0  0  0  0  0  0
   19.8100   11.3860   20.6670 C   0  0  0  0  0  0  0  0  0  0  0  0
   18.5640   11.1680   20.1330 C   0  0  0  0  0  0  0  0  0  0  0  0
   22.0590   10.5600   21.5570 C   0  0  3  0  0  0  0  0  0  0  0  0
   21.9990   11.7980   22.4860 C   0  0  0  0  0  0  0  0  0  0  0  0
   22.6330   11.3560   23.8030 C   0  0  3  0  0  0  0  0  0  0  0  0
   22.5570    9.8710   23.6560 C   0  0  0  0  0  0  0  0  0  0  0  0
   22.3190    9.4250   22.4640 N   0  3  0  0  0  0  0  0  0  0  0  0
   22.7950    9.0300   24.7050 N   0  0  0  0  0  0  0  0  0  0  0  0
   21.9830   11.6860   25.0140 O   0  0  0  0  0  0  0  0  0  0  0  0
   22.1100   13.0830   25.2690 C   0  0  0  0  0  0  0  0  0  0  0  0
   23.1570   10.7900   20.5400 C   0  0  0  0  0  0  0  0  0  0  0  0
   22.8690   11.1460   19.2320 C   0  0  0  0  0  0  0  0  0  0  0  0
   23.8760   11.3700   18.3110 C   0  0  0  0  0  0  0  0  0  0  0  0
   25.1990   11.2750   18.6940 C   0  0  0  0  0  0  0  0  0  0  0  0
   25.5310   10.9260   19.9920 C   0  0  0  0  0  0  0  0  0  0  0  0
   24.4930   10.6860   20.8850 C   0  0  0  0  0  0  0  0  0  0  0  0
   26.9280   10.8860   20.4410 C   0  0  0  0  0  0  0  0  0  0  0  0
   27.8210   11.8860   20.0700 C   0  0  0  0  0  0  0  0  0  0  0  0
   29.1120   11.9300   20.5560 C   0  0  0  0  0  0  0  0  0  0  0  0
   29.4990   10.9190   21.4050 C   0  0  0  0  0  0  0  0  0  0  0  0
   28.7020    9.9050   21.7730 N   0  0  0  0  0  0  0  0  0  0  0  0
   27.4430    9.9220   21.2900 C   0  0  0  0  0  0  0  0  0  0  0  0
   15.3730    8.3650   19.0300 H   0  0  0  0  0  0  0  0  0  0  0  0
   16.3320    8.1320   20.5110 H   0  0  0  0  0  0  0  0  0  0  0  0
   17.0310    7.7260   18.9260 H   0  0  0  0  0  0  0  0  0  0  0  0
   18.6730    7.7950   19.9260 H   0  0  0  0  0  0  0  0  0  0  0  0
   20.8910    8.2340   20.8890 H   0  0  0  0  0  0  0  0  0  0  0  0
   20.1230   12.4010   20.8630 H   0  0  0  0  0  0  0  0  0  0  0  0
   17.9090   12.0000   19.9200 H   0  0  0  0  0  0  0  0  0  0  0  0
   20.9650   12.1040   22.6460 H   0  0  0  0  0  0  0  0  0  0  0  0
   22.5600   12.6260   22.0530 H   0  0  0  0  0  0  0  0  0  0  0  0
   23.6000   11.8480   23.9120 H   0  0  0  0  0  0  0  0  0  0  0  0
   22.3120    8.4510   22.1960 H   0  0  0  0  0  0  0  0  0  0  0  0
   22.7880    8.0300   24.5620 H   0  0  0  0  0  0  0  0  0  0  0  0
   22.9780    9.4080   25.6240 H   0  0  0  0  0  0  0  0  0  0  0  0
   21.6060   13.3290   26.2040 H   0  0  0  0  0  0  0  0  0  0  0  0
   21.6550   13.6440   24.4530 H   0  0  0  0  0  0  0  0  0  0  0  0
   23.1660   13.3440   25.3450 H   0  0  0  0  0  0  0  0  0  0  0  0
   21.8390   11.2500   18.9260 H   0  0  0  0  0  0  0  0  0  0  0  0
   23.6270   11.6200   17.2900 H   0  0  0  0  0  0  0  0  0  0  0  0
   25.9810   11.4740   17.9760 H   0  0  0  0  0  0  0  0  0  0  0  0
   24.7410   10.4050   21.8980 H   0  0  0  0  0  0  0  0  0  0  0  0
   27.4940   12.6510   19.3810 H   0  0  0  0  0  0  0  0  0  0  0  0
   29.7900   12.7250   20.2810 H   0  0  0  0  0  0  0  0  0  0  0  0
   30.5040   10.9430   21.7990 H   0  0  0  0  0  0  0  0  0  0  0  0
   26.7850    9.1200   21.5890 H   0  0  0  0  0  0  0  0  0  0  0  0
  1  2  1  0  0  0  0
  1 29  1  0  0  0  0
  1 30  1  0  0  0  0
  1 31  1  0  0  0  0
  2  3  1  0  0  0  0
  3  4  1  0  0  0  0
  3  8  2  0  0  0  0
  4  5  2  0  0  0  0
  4 32  1  0  0  0  0
  5  6  1  0  0  0  0
  5 33  1  0  0  0  0
  6  7  2  0  0  0  0
  6  9  1  0  0  0  0
  7  8  1  0  0  0  0
  7 34  1  0  0  0  0
  8 35  1  0  0  0  0
  9 10  1  0  0  0  0
  9 13  1  0  0  0  0
  9 17  1  0  0  0  0
 10 11  1  0  0  0  0
 10 36  1  0  0  0  0
 10 37  1  0  0  0  0
 11 12  1  0  0  0  0
 11 15  1  0  0  0  0
 11 38  1  0  0  0  0
 12 13  2  0  0  0  0
 12 14  1  0  0  0  0
 13 39  1  0  0  0  0
 14 40  1  0  0  0  0
 14 41  1  0  0  0  0
 15 16  1  0  0  0  0
 16 42  1  0  0  0  0
 16 43  1  0  0  0  0
 16 44  1  0  0  0  0
 17 18  1  0  0  0  0
 17 22  2  0  0  0  0
 18 19  2  0  0  0  0
 18 45  1  0  0  0  0
 19 20  1  0  0  0  0
 19 46  1  0  0  0  0
 20 21  2  0  0  0  0
 20 47  1  0  0  0  0
 21 22  1  0  0  0  0
 21 23  1  0  0  0  0
 22 48  1  0  0  0  0
 23 24  1  0  0  0  0
 23 28  2  0  0  0  0
 24 25  2  0  0  0  0
 24 49  1  0  0  0  0
 25 26  1  0  0  0  0
 25 50  1  0  0  0  0
 26 27  2  0  0  0  0
 26 51  1  0  0  0  0
 27 28  1  0  0  0  0
 28 52  1  0  0  0  0
M  CHG  1  13   1
M  END
>  <PARENT_CMPD_ID>
4B78

>  <STANDARD_TYPE>
IC50

>  <RELATION>
=

>  <STANDARD_VALUE>
3.2

>  <STANDARD_UNITS>
uM

>  <COMPOUND_KEY>
91

>  <PUBMED_ID>
23126626

>  <JOURNAL>
J.Med.Chem.

>  <YEAR>
2013

>  <VOLUME>
56

>  <FIRST_PAGE>
4181

>  <Company>
AstraZeneca

>  <Resolution>
1.5

>  <idx>
154

>  <Model>
Train

>  <target>
5.4948502

>  <des_pred_mlr>
5.8528099

>  <RF_Canvas>
5.7991457

>  <DNN_Canvas>
5.7255707

>  <pred_CoMFA>
5.9738002

>  <pred_COMSIA>
6.5795999

>  <pred_abm5>
5.9244108

>  <pred_ff8>
5.1436839

>  <pred_gau6>
5.9525285

>  <CID>
BACE_154

>  <active>
0

>  <des_class_bayes>
0

>  <maacs_class_bayes>
0

>  <radial_class_bayes>
0

>  <dend_class_bayes>
0

>  <molprint_class_bayes>
0

>  <RF_canvas>
0

>  <DNN_canvas>
0

$$$$
3H0B_2977
  MOE2015           3D

 47 49  0  0  1  0  0  0  0  0999 V2000
   18.5850    9.9240   19.3490 C   0  0  0  0  0  0  0  0  0  0  0  0
   19.4350    8.9620   19.8800 C   0  0  0  0  0  0  0  0  0  0  0  0
   20.7400    9.2880   20.2150 C   0  0  0  0  0  0  0  0  0  0  0  0
   21.2350   10.5690   20.0260 C   0  0  0  0  0  0  0  0  0  0  0  0
   22.6690    9.7550   22.6220 N   0  0  0  0  0  0  0  0  0  0  0  0
   20.3910   11.5330   19.5020 C   0  0  0  0  0  0  0  0  0  0  0  0
   16.7720    8.4180   19.2430 C   0  0  0  0  0  0  0  0  0  0  0  0
   22.6580   10.8790   20.4090 C   0  0  3  0  0  0  0  0  0  0  0  0
   22.7580   10.8960   21.9070 C   0  0  0  0  0  0  0  0  0  0  0  0
   19.0820   11.2070   19.1660 C   0  0  0  0  0  0  0  0  0  0  0  0
   17.3180    9.7360   18.9890 O   0  0  0  0  0  0  0  0  0  0  0  0
   18.2890   12.1620   18.6520 F   0  0  0  0  0  0  0  0  0  0  0  0
   23.7110    9.9460   19.8090 C   0  0  0  0  0  0  0  0  0  0  0  0
   25.0430   10.6490   19.7720 C   0  0  0  0  0  0  0  0  0  0  0  0
   26.0740   10.2310   20.6100 C   0  0  0  0  0  0  0  0  0  0  0  0
   27.2980   10.8920   20.5750 C   0  0  0  0  0  0  0  0  0  0  0  0
   27.5100   11.9700   19.7240 C   0  0  0  0  0  0  0  0  0  0  0  0
   26.4700   12.3810   18.8960 C   0  0  0  0  0  0  0  0  0  0  0  0
   25.2410   11.7290   18.9200 C   0  0  0  0  0  0  0  0  0  0  0  0
   24.2060   12.0680   18.1590 O   0  0  0  0  0  0  0  0  0  0  0  0
   24.5050   12.8440   16.9680 C   0  0  0  0  0  0  0  0  0  0  0  0
   22.7810   10.0160   23.9400 C   0  0  0  0  0  0  0  0  0  0  0  0
   22.9410   11.3480   24.0610 N   0  0  0  0  0  0  0  0  0  0  0  0
   22.9280   11.9150   22.8350 C   0  0  0  0  0  0  0  0  0  0  0  0
   22.7430    9.1230   24.9410 N   0  0  0  0  0  0  0  0  0  0  0  0
   28.2880   10.4830   21.3750 N   0  3  0  0  0  0  0  0  0  0  0  0
   28.1600    9.2250   21.9470 O   0  0  0  0  0  0  0  0  0  0  0  0
   29.3610   11.3410   21.5780 O   0  5  0  0  0  0  0  0  0  0  0  0
   19.0770    7.9550   20.0330 H   0  0  0  0  0  0  0  0  0  0  0  0
   21.3840    8.5280   20.6320 H   0  0  0  0  0  0  0  0  0  0  0  0
   20.7500   12.5410   19.3540 H   0  0  0  0  0  0  0  0  0  0  0  0
   15.7350    8.3840   18.9090 H   0  0  0  0  0  0  0  0  0  0  0  0
   16.8170    8.2060   20.3110 H   0  0  0  0  0  0  0  0  0  0  0  0
   17.3540    7.6730   18.7000 H   0  0  0  0  0  0  0  0  0  0  0  0
   22.8880   11.8550   19.9830 H   0  0  0  0  0  0  0  0  0  0  0  0
   23.4170    9.6710   18.7960 H   0  0  0  0  0  0  0  0  0  0  0  0
   23.7910    9.0480   20.4210 H   0  0  0  0  0  0  0  0  0  0  0  0
   25.9240    9.3990   21.2830 H   0  0  0  0  0  0  0  0  0  0  0  0
   28.4630   12.4780   19.7060 H   0  0  0  0  0  0  0  0  0  0  0  0
   26.6180   13.2160   18.2270 H   0  0  0  0  0  0  0  0  0  0  0  0
   23.5800   13.0580   16.4320 H   0  0  0  0  0  0  0  0  0  0  0  0
   25.1760   12.2760   16.3230 H   0  0  0  0  0  0  0  0  0  0  0  0
   24.9830   13.7800   17.2550 H   0  0  0  0  0  0  0  0  0  0  0  0
   23.0530   11.8450   24.9330 H   0  0  0  0  0  0  0  0  0  0  0  0
   23.0310   12.9680   22.6170 H   0  0  0  0  0  0  0  0  0  0  0  0
   22.8400    9.4320   25.8980 H   0  0  0  0  0  0  0  0  0  0  0  0
   22.6180    8.1420   24.7380 H   0  0  0  0  0  0  0  0  0  0  0  0
  1  2  1  0  0  0  0
  1 10  2  0  0  0  0
  1 11  1  0  0  0  0
  2  3  2  0  0  0  0
  2 29  1  0  0  0  0
  3  4  1  0  0  0  0
  3 30  1  0  0  0  0
  4  6  2  0  0  0  0
  4  8  1  0  0  0  0
  5  9  1  0  0  0  0
  5 22  2  0  0  0  0
  6 10  1  0  0  0  0
  6 31  1  0  0  0  0
  7 11  1  0  0  0  0
  7 32  1  0  0  0  0
  7 33  1  0  0  0  0
  7 34  1  0  0  0  0
  8  9  1  0  0  0  0
  8 13  1  0  0  0  0
  8 35  1  0  0  0  0
  9 24  2  0  0  0  0
 10 12  1  0  0  0  0
 13 14  1  0  0  0  0
 13 36  1  0  0  0  0
 13 37  1  0  0  0  0
 14 15  1  0  0  0  0
 14 19  2  0  0  0  0
 15 16  2  0  0  0  0
 15 38  1  0  0  0  0
 16 17  1  0  0  0  0
 16 26  1  0  0  0  0
 17 18  2  0  0  0  0
 17 39  1  0  0  0  0
 18 19  1  0  0  0  0
 18 40  1  0  0  0  0
 19 20  1  0  0  0  0
 20 21  1  0  0  0  0
 21 41  1  0  0  0  0
 21 42  1  0  0  0  0
 21 43  1  0  0  0  0
 22 23  1  0  0  0  0
 22 25  1  0  0  0  0
 23 24  1  0  0  0  0
 23 44  1  0  0  0  0
 24 45  1  0  0  0  0
 25 46  1  0  0  0  0
 25 47  1  0  0  0  0
 26 27  2  0  0  0  0
 26 28  1  0  0  0  0
M  CHG  1  26   1
M  CHG  1  28  -1
M  END
>  <PARENT_CMPD_ID>
3H0B

>  <STANDARD_TYPE>
IC50

>  <RELATION>
=

>  <STANDARD_VALUE>
3.2

>  <STANDARD_UNITS>
uM

>  <COMPOUND_KEY>
7

>  <PUBMED_ID>
19409780

>  <JOURNAL>
Bioorg.Med.Chem.Lett.

>  <YEAR>
2009

>  <VOLUME>
19

>  <FIRST_PAGE>
2977

>  <Company>
Merck

>  <Resolution>
2.7

>  <idx>
155

>  <Model>
Train

>  <target>
5.4948502

>  <des_pred_mlr>
6.0766101

>  <RF_Canvas>
5.8559184

>  <DNN_Canvas>
5.8148408

>  <pred_CoMFA>
5.4109001

>  <pred_COMSIA>
6.5279002

>  <pred_abm5>
5.4776425

>  <pred_ff8>
5.4486313

>  <pred_gau6>
5.478837

>  <CID>
BACE_155

>  <active>
0

>  <des_class_bayes>
0

>  <maacs_class_bayes>
0

>  <radial_class_bayes>
0

>  <dend_class_bayes>
0

>  <molprint_class_bayes>
0

>  <RF_canvas>
0

>  <DNN_canvas>
0

$$$$
3K5F_1924
  MOE2015           3D

 83 84  0  0  1  0  0  0  0  0999 V2000
   24.1560   11.7400   23.5070 N   0  0  0  0  0  0  0  0  0  0  0  0
   22.9310   11.0950   23.0750 C   0  0  3  0  0  0  0  0  0  0  0  0
   22.1240   10.4330   24.2090 C   0  0  3  0  0  0  0  0  0  0  0  0
   22.8770    9.2920   24.7000 O   0  0  0  0  0  0  0  0  0  0  0  0
   21.8580   11.4300   25.3560 C   0  0  0  0  0  0  0  0  0  0  0  0
   20.6300   10.8980   26.1470 C   0  0  3  0  0  0  0  0  0  0  0  0
   20.5840   11.5230   27.5590 C   0  0  0  0  0  0  0  0  0  0  0  0
   19.3400   11.3130   25.4530 C   0  0  0  0  0  0  0  0  0  0  0  0
   19.2510   12.3970   24.8950 O   0  0  0  0  0  0  0  0  0  0  0  0
   18.3390   10.4300   25.4880 N   0  0  0  0  0  0  0  0  0  0  0  0
   17.0660   10.7750   24.8380 C   0  0  0  0  0  0  0  0  0  0  0  0
   16.1310    9.5560   24.8530 C   0  0  0  0  0  0  0  0  0  0  0  0
   14.6620    9.9910   24.5880 C   0  0  0  0  0  0  0  0  0  0  0  0
   14.4750   10.4540   23.1180 C   0  0  0  0  0  0  0  0  0  0  0  0
   23.2040   10.0770   21.9610 C   0  0  0  0  0  0  0  0  0  0  0  0
   24.0900   10.7060   20.8760 C   0  0  0  0  0  0  0  0  0  0  0  0
   23.7070   11.9060   20.2440 C   0  0  0  0  0  0  0  0  0  0  0  0
   24.5340   12.4870   19.2620 C   0  0  0  0  0  0  0  0  0  0  0  0
   25.7420   11.8550   18.9010 C   0  0  0  0  0  0  0  0  0  0  0  0
   26.1140   10.6510   19.5250 C   0  0  0  0  0  0  0  0  0  0  0  0
   25.2930   10.0840   20.5110 C   0  0  0  0  0  0  0  0  0  0  0  0
   24.1580   13.0830   23.6220 C   0  0  0  0  0  0  0  0  0  0  0  0
   23.1750   13.7790   23.4070 O   0  0  0  0  0  0  0  0  0  0  0  0
   25.4690   13.7100   24.0450 C   0  0  3  0  0  0  0  0  0  0  0  0
   26.4380   13.5990   22.8260 C   0  0  0  0  0  0  0  0  0  0  0  0
   27.8320   14.2100   23.1340 C   0  0  3  0  0  0  0  0  0  0  0  0
   27.6900   15.6790   23.6780 C   0  0  0  0  0  0  0  0  0  0  0  0
   26.7680   15.7240   24.9220 C   0  0  0  0  0  0  0  0  0  0  0  0
   25.3520   15.1880   24.5250 C   0  0  0  0  0  0  0  0  0  0  0  0
   28.7510   14.1510   21.8390 C   0  0  0  0  0  0  0  0  0  0  0  0
   28.8240   12.7440   21.3920 N   0  0  0  0  0  0  0  0  0  0  0  0
   29.3150   11.7980   22.2220 C   0  0  0  0  0  0  0  0  0  0  0  0
   29.7460   12.0520   23.3400 O   0  0  0  0  0  0  0  0  0  0  0  0
   29.3090   10.3700   21.7110 C   0  0  0  0  0  0  0  0  0  0  0  0
   28.1890   14.9750   20.6640 C   0  0  0  0  0  0  0  0  0  0  0  0
   30.1570   14.7170   22.1520 C   0  0  0  0  0  0  0  0  0  0  0  0
   24.9830   11.1990   23.7150 H   0  0  0  0  0  0  0  0  0  0  0  0
   22.3090   11.9040   22.6920 H   0  0  0  0  0  0  0  0  0  0  0  0
   21.1570   10.1100   23.8240 H   0  0  0  0  0  0  0  0  0  0  0  0
   23.7180    9.6190   25.0280 H   0  0  0  0  0  0  0  0  0  0  0  0
   21.6420   12.4180   24.9500 H   0  0  0  0  0  0  0  0  0  0  0  0
   22.7280   11.4880   26.0100 H   0  0  0  0  0  0  0  0  0  0  0  0
   20.7230    9.8130   26.2010 H   0  0  0  0  0  0  0  0  0  0  0  0
   20.4910   12.6060   27.4740 H   0  0  0  0  0  0  0  0  0  0  0  0
   21.5010   11.2780   28.0950 H   0  0  0  0  0  0  0  0  0  0  0  0
   19.7270   11.1270   28.1040 H   0  0  0  0  0  0  0  0  0  0  0  0
   18.4540    9.5410   25.9530 H   0  0  0  0  0  0  0  0  0  0  0  0
   17.2550   11.0740   23.8070 H   0  0  0  0  0  0  0  0  0  0  0  0
   16.5960   11.5990   25.3750 H   0  0  0  0  0  0  0  0  0  0  0  0
   16.1910    9.0700   25.8270 H   0  0  0  0  0  0  0  0  0  0  0  0
   16.4430    8.8560   24.0780 H   0  0  0  0  0  0  0  0  0  0  0  0
   14.4080   10.8140   25.2560 H   0  0  0  0  0  0  0  0  0  0  0  0
   14.0000    9.1470   24.7830 H   0  0  0  0  0  0  0  0  0  0  0  0
   15.1350   11.2980   22.9160 H   0  0  0  0  0  0  0  0  0  0  0  0
   13.4400   10.7570   22.9610 H   0  0  0  0  0  0  0  0  0  0  0  0
   14.7190    9.6330   22.4440 H   0  0  0  0  0  0  0  0  0  0  0  0
   22.2580    9.7650   21.5180 H   0  0  0  0  0  0  0  0  0  0  0  0
   23.7110    9.2090   22.3820 H   0  0  0  0  0  0  0  0  0  0  0  0
   22.7760   12.3820   20.5130 H   0  0  0  0  0  0  0  0  0  0  0  0
   24.2440   13.4130   18.7880 H   0  0  0  0  0  0  0  0  0  0  0  0
   26.3790   12.2940   18.1480 H   0  0  0  0  0  0  0  0  0  0  0  0
   27.0350   10.1610   19.2440 H   0  0  0  0  0  0  0  0  0  0  0  0
   25.5890    9.1630   20.9920 H   0  0  0  0  0  0  0  0  0  0  0  0
   25.8410   13.1730   24.9180 H   0  0  0  0  0  0  0  0  0  0  0  0
   26.0010   14.1290   21.9790 H   0  0  0  0  0  0  0  0  0  0  0  0
   26.5630   12.5470   22.5710 H   0  0  0  0  0  0  0  0  0  0  0  0
   28.3120   13.6210   23.9150 H   0  0  0  0  0  0  0  0  0  0  0  0
   27.2650   16.3090   22.8970 H   0  0  0  0  0  0  0  0  0  0  0  0
   28.6760   16.0550   23.9510 H   0  0  0  0  0  0  0  0  0  0  0  0
   26.6840   16.7510   25.2780 H   0  0  0  0  0  0  0  0  0  0  0  0
   27.1870   15.1000   25.7110 H   0  0  0  0  0  0  0  0  0  0  0  0
   24.6900   15.2370   25.3890 H   0  0  0  0  0  0  0  0  0  0  0  0
   24.9450   15.8000   23.7200 H   0  0  0  0  0  0  0  0  0  0  0  0
   28.5070   12.4900   20.4670 H   0  0  0  0  0  0  0  0  0  0  0  0
   28.8910   10.3460   20.7050 H   0  0  0  0  0  0  0  0  0  0  0  0
   28.7020    9.7500   22.3710 H   0  0  0  0  0  0  0  0  0  0  0  0
   30.3290    9.9870   21.6900 H   0  0  0  0  0  0  0  0  0  0  0  0
   27.1950   14.6100   20.4070 H   0  0  0  0  0  0  0  0  0  0  0  0
   28.8470   14.8730   19.8010 H   0  0  0  0  0  0  0  0  0  0  0  0
   28.1280   16.0240   20.9530 H   0  0  0  0  0  0  0  0  0  0  0  0
   30.5960   14.1620   22.9810 H   0  0  0  0  0  0  0  0  0  0  0  0
   30.0730   15.7690   22.4230 H   0  0  0  0  0  0  0  0  0  0  0  0
   30.7930   14.6180   21.2720 H   0  0  0  0  0  0  0  0  0  0  0  0
  1  2  1  0  0  0  0
  1 22  1  0  0  0  0
  1 37  1  0  0  0  0
  2  3  1  0  0  0  0
  2 15  1  0  0  0  0
  2 38  1  0  0  0  0
  3  4  1  0  0  0  0
  3  5  1  0  0  0  0
  3 39  1  0  0  0  0
  4 40  1  0  0  0  0
  5  6  1  0  0  0  0
  5 41  1  0  0  0  0
  5 42  1  0  0  0  0
  6  7  1  0  0  0  0
  6  8  1  0  0  0  0
  6 43  1  0  0  0  0
  7 44  1  0  0  0  0
  7 45  1  0  0  0  0
  7 46  1  0  0  0  0
  8  9  2  0  0  0  0
  8 10  1  0  0  0  0
 10 11  1  0  0  0  0
 10 47  1  0  0  0  0
 11 12  1  0  0  0  0
 11 48  1  0  0  0  0
 11 49  1  0  0  0  0
 12 13  1  0  0  0  0
 12 50  1  0  0  0  0
 12 51  1  0  0  0  0
 13 14  1  0  0  0  0
 13 52  1  0  0  0  0
 13 53  1  0  0  0  0
 14 54  1  0  0  0  0
 14 55  1  0  0  0  0
 14 56  1  0  0  0  0
 15 16  1  0  0  0  0
 15 57  1  0  0  0  0
 15 58  1  0  0  0  0
 16 17  1  0  0  0  0
 16 21  2  0  0  0  0
 17 18  2  0  0  0  0
 17 59  1  0  0  0  0
 18 19  1  0  0  0  0
 18 60  1  0  0  0  0
 19 20  2  0  0  0  0
 19 61  1  0  0  0  0
 20 21  1  0  0  0  0
 20 62  1  0  0  0  0
 21 63  1  0  0  0  0
 22 23  2  0  0  0  0
 22 24  1  0  0  0  0
 24 25  1  0  0  0  0
 24 29  1  0  0  0  0
 24 64  1  0  0  0  0
 25 26  1  0  0  0  0
 25 65  1  0  0  0  0
 25 66  1  0  0  0  0
 26 27  1  0  0  0  0
 26 30  1  0  0  0  0
 26 67  1  0  0  0  0
 27 28  1  0  0  0  0
 27 68  1  0  0  0  0
 27 69  1  0  0  0  0
 28 29  1  0  0  0  0
 28 70  1  0  0  0  0
 28 71  1  0  0  0  0
 29 72  1  0  0  0  0
 29 73  1  0  0  0  0
 30 31  1  0  0  0  0
 30 35  1  0  0  0  0
 30 36  1  0  0  0  0
 31 32  1  0  0  0  0
 31 74  1  0  0  0  0
 32 33  2  0  0  0  0
 32 34  1  0  0  0  0
 34 75  1  0  0  0  0
 34 76  1  0  0  0  0
 34 77  1  0  0  0  0
 35 78  1  0  0  0  0
 35 79  1  0  0  0  0
 35 80  1  0  0  0  0
 36 81  1  0  0  0  0
 36 82  1  0  0  0  0
 36 83  1  0  0  0  0
M  END
>  <PARENT_CMPD_ID>
3K5F

>  <STANDARD_TYPE>
IC50

>  <RELATION>
=

>  <STANDARD_VALUE>
3.7

>  <STANDARD_UNITS>
uM

>  <COMPOUND_KEY>
10

>  <PUBMED_ID>
20172717

>  <JOURNAL>
Bioorg.Med.Chem.Lett.

>  <YEAR>
2010

>  <VOLUME>
20

>  <FIRST_PAGE>
1924

>  <Company>
U.Montreal

>  <Resolution>
2.25

>  <idx>
156

>  <Model>
Train

>  <target>
5.4317985

>  <des_pred_mlr>
6.7220402

>  <RF_Canvas>
5.9638953

>  <DNN_Canvas>
6.4165697

>  <pred_CoMFA>
5.6420999

>  <pred_COMSIA>
6.4365001

>  <pred_abm5>
5.7406845

>  <pred_ff8>
6.0715637

>  <pred_gau6>
5.8463154

>  <CID>
BACE_156

>  <active>
0

>  <des_class_bayes>
1

>  <maacs_class_bayes>
0

>  <radial_class_bayes>
0

>  <dend_class_bayes>
0

>  <molprint_class_bayes>
0

>  <RF_canvas>
0

>  <DNN_canvas>
0

$$$$
2QU2_5353
  MOE2015           3D

 43 45  0  0  0  0  0  0  0  0999 V2000
   15.5360   11.1120   21.4190 C   0  0  0  0  0  0  0  0  0  0  0  0
   16.8250   11.6090   20.9810 C   0  0  0  0  0  0  0  0  0  0  0  0
   17.7460   10.7220   20.3060 C   0  0  0  0  0  0  0  0  0  0  0  0
   17.3850    9.3510   20.0880 C   0  0  0  0  0  0  0  0  0  0  0  0
   16.1110    8.8470   20.5180 C   0  0  0  0  0  0  0  0  0  0  0  0
   15.1830    9.7230   21.1920 C   0  0  0  0  0  0  0  0  0  0  0  0
   19.0530   11.1670   19.8450 C   0  0  0  0  0  0  0  0  0  0  0  0
   19.2730   12.1420   18.9240 C   0  0  0  0  0  0  0  0  0  0  0  0
   20.7170   12.3040   18.6990 C   0  0  0  0  0  0  0  0  0  0  0  0
   21.4130   11.4200   19.4800 C   0  0  0  0  0  0  0  0  0  0  0  0
   20.3950   10.6480   20.2570 N   0  0  0  0  0  0  0  0  0  0  0  0
   22.9160   11.2530   19.5100 C   0  0  0  0  0  0  0  0  0  0  0  0
   23.7140   11.2940   20.7410 C   0  0  0  0  0  0  0  0  0  0  0  0
   25.1390   11.1030   20.7030 C   0  0  0  0  0  0  0  0  0  0  0  0
   25.7940   10.8790   19.4400 C   0  0  0  0  0  0  0  0  0  0  0  0
   25.0280   10.8420   18.2370 C   0  0  0  0  0  0  0  0  0  0  0  0
   23.6090   11.0280   18.2550 C   0  0  0  0  0  0  0  0  0  0  0  0
   20.7130    9.5720   21.2620 C   0  0  0  0  0  0  0  0  0  0  0  0
   21.0540   10.2830   22.5940 C   0  0  0  0  0  0  0  0  0  0  0  0
   21.4020    9.4380   23.6090 N   0  0  0  0  0  0  0  0  0  0  0  0
   21.3900    8.4480   23.4080 H   0  0  0  0  0  0  0  0  0  0  0  0
   21.0190   11.5400   22.6900 O   0  0  0  0  0  0  0  0  0  0  0  0
   21.7600    9.8070   24.8570 C   0  0  0  0  0  0  0  0  0  0  0  0
   21.8080   11.1130   25.2240 N   0  3  0  0  0  0  0  0  0  0  0  0
   22.0830   11.3640   26.1630 H   0  0  0  0  0  0  0  0  0  0  0  0
   21.5690   11.8340   24.5580 H   0  0  0  0  0  0  0  0  0  0  0  0
   22.0610    8.8250   25.6840 N   0  0  0  0  0  0  0  0  0  0  0  0
   14.8400   11.7740   21.9130 H   0  0  0  0  0  0  0  0  0  0  0  0
   17.0970   12.6390   21.1580 H   0  0  0  0  0  0  0  0  0  0  0  0
   18.0810    8.6890   19.5940 H   0  0  0  0  0  0  0  0  0  0  0  0
   15.8480    7.8150   20.3380 H   0  0  0  0  0  0  0  0  0  0  0  0
   14.2280    9.3460   21.5270 H   0  0  0  0  0  0  0  0  0  0  0  0
   18.5010   12.7140   18.4300 H   0  0  0  0  0  0  0  0  0  0  0  0
   21.1630   13.0150   18.0190 H   0  0  0  0  0  0  0  0  0  0  0  0
   23.2250   11.4700   21.6880 H   0  0  0  0  0  0  0  0  0  0  0  0
   25.7150   11.1270   21.6160 H   0  0  0  0  0  0  0  0  0  0  0  0
   26.8640   10.7390   19.4040 H   0  0  0  0  0  0  0  0  0  0  0  0
   25.5280   10.6700   17.2950 H   0  0  0  0  0  0  0  0  0  0  0  0
   23.0510   11.0010   17.3300 H   0  0  0  0  0  0  0  0  0  0  0  0
   21.5650    8.9830   20.9230 H   0  0  0  0  0  0  0  0  0  0  0  0
   19.8510    8.9190   21.3960 H   0  0  0  0  0  0  0  0  0  0  0  0
   22.3410    9.0310   26.6320 H   0  0  0  0  0  0  0  0  0  0  0  0
   22.0120    7.8670   25.3690 H   0  0  0  0  0  0  0  0  0  0  0  0
  1  2  1  0  0  0  0
  1  6  2  0  0  0  0
  1 28  1  0  0  0  0
  2  3  2  0  0  0  0
  2 29  1  0  0  0  0
  3  4  1  0  0  0  0
  3  7  1  0  0  0  0
  4  5  2  0  0  0  0
  4 30  1  0  0  0  0
  5  6  1  0  0  0  0
  5 31  1  0  0  0  0
  6 32  1  0  0  0  0
  7  8  2  0  0  0  0
  7 11  1  0  0  0  0
  8  9  1  0  0  0  0
  8 33  1  0  0  0  0
  9 10  2  0  0  0  0
  9 34  1  0  0  0  0
 10 11  1  0  0  0  0
 10 12  1  0  0  0  0
 11 18  1  0  0  0  0
 12 13  1  0  0  0  0
 12 17  2  0  0  0  0
 13 14  2  0  0  0  0
 13 35  1  0  0  0  0
 14 15  1  0  0  0  0
 14 36  1  0  0  0  0
 15 16  2  0  0  0  0
 15 37  1  0  0  0  0
 16 17  1  0  0  0  0
 16 38  1  0  0  0  0
 17 39  1  0  0  0  0
 18 19  1  0  0  0  0
 18 40  1  0  0  0  0
 18 41  1  0  0  0  0
 19 20  1  0  0  0  0
 19 22  2  0  0  0  0
 20 21  1  0  0  0  0
 20 23  1  0  0  0  0
 23 24  2  0  0  0  0
 23 27  1  0  0  0  0
 24 25  1  0  0  0  0
 24 26  1  0  0  0  0
 27 42  1  0  0  0  0
 27 43  1  0  0  0  0
M  CHG  1  24   1
M  END
>  <PARENT_CMPD_ID>
2QU2

>  <STANDARD_TYPE>
IC50

>  <RELATION>
=

>  <STANDARD_VALUE>
3.7

>  <STANDARD_UNITS>
uM

>  <COMPOUND_KEY>
1

>  <PUBMED_ID>
17761418

>  <JOURNAL>
Bioorg.Med.Chem.Lett.

>  <YEAR>
2007

>  <VOLUME>
17

>  <FIRST_PAGE>
5353

>  <Company>
Wyeth

>  <Resolution>
2.5999999

>  <idx>
157

>  <Model>
Train

>  <target>
5.4317985

>  <des_pred_mlr>
5.82864

>  <RF_Canvas>
5.0229464

>  <DNN_Canvas>
5.0130949

>  <pred_CoMFA>
4.8130999

>  <pred_COMSIA>
4.9642

>  <pred_abm5>
4.5861297

>  <pred_ff8>
5.1907868

>  <pred_gau6>
4.2195516

>  <CID>
BACE_157

>  <active>
0

>  <des_class_bayes>
0

>  <maacs_class_bayes>
0

>  <radial_class_bayes>
0

>  <dend_class_bayes>
0

>  <molprint_class_bayes>
0

>  <RF_canvas>
0

>  <DNN_canvas>
0

$$$$
3UDQ_9069
  MOE2015           3D

 50 54  0  0  1  0  0  0  0  0999 V2000
   23.1410   10.9360   21.2740 C   0  0  0  0  0  0  0  0  0  0  0  0
   22.5150   11.0740   22.6400 C   0  0  3  0  0  0  0  0  0  0  0  0
   23.6330    9.8100   20.5990 C   0  0  0  0  0  0  0  0  0  0  0  0
   23.5860    8.8250   21.0400 H   0  0  0  0  0  0  0  0  0  0  0  0
   21.2130   10.2580   22.7710 C   0  0  0  0  0  0  0  0  0  0  0  0
   21.0840    9.5960   21.9150 H   0  0  0  0  0  0  0  0  0  0  0  0
   20.3500   10.9180   22.8520 H   0  0  0  0  0  0  0  0  0  0  0  0
   24.1910   10.0150   19.3210 C   0  0  0  0  0  0  0  0  0  0  0  0
   24.5560    9.1640   18.7640 H   0  0  0  0  0  0  0  0  0  0  0  0
   23.7640   12.4320   19.4050 C   0  0  0  0  0  0  0  0  0  0  0  0
   23.8010   13.4120   18.9520 H   0  0  0  0  0  0  0  0  0  0  0  0
   21.4020    9.4490   24.0610 C   0  0  3  0  0  0  0  0  0  0  0  0
   20.9470    8.4700   23.9100 H   0  0  0  0  0  0  0  0  0  0  0  0
   24.2860   11.2990   18.7500 C   0  0  0  0  0  0  0  0  0  0  0  0
   24.7690   11.4170   17.7910 H   0  0  0  0  0  0  0  0  0  0  0  0
   20.7340   10.1250   25.2820 C   0  0  0  0  0  0  0  0  0  0  0  0
   22.8640    9.3750   24.3480 N   0  3  0  0  0  0  0  0  0  0  0  0
   23.2750    8.5800   23.8800 H   0  0  0  0  0  0  0  0  0  0  0  0
   23.0250    9.3010   25.3420 H   0  0  0  0  0  0  0  0  0  0  0  0
   21.1440   10.1670   26.4430 O   0  0  0  0  0  0  0  0  0  0  0  0
   23.4370   10.6350   23.8250 C   0  0  0  0  0  0  0  0  0  0  0  0
   23.4430   11.3990   24.6020 H   0  0  0  0  0  0  0  0  0  0  0  0
   24.4540   10.4690   23.4710 H   0  0  0  0  0  0  0  0  0  0  0  0
   22.2380   12.6010   22.7390 C   0  0  0  0  0  0  0  0  0  0  0  0
   21.7090   13.2220   23.6470 O   0  0  0  0  0  0  0  0  0  0  0  0
   22.6540   13.2020   21.5400 N   0  0  0  0  0  0  0  0  0  0  0  0
   22.5760   14.1870   21.3320 H   0  0  0  0  0  0  0  0  0  0  0  0
   23.1970   12.2340   20.6640 C   0  0  0  0  0  0  0  0  0  0  0  0
   18.7700   11.3540   25.9270 C   0  0  3  0  0  0  0  0  0  0  0  0
   18.7700   10.8970   26.9160 H   0  0  0  0  0  0  0  0  0  0  0  0
   19.3970   12.7820   26.0680 C   0  0  0  0  0  0  0  0  0  0  0  0
   19.4630   13.2530   25.0870 H   0  0  0  0  0  0  0  0  0  0  0  0
   20.3940   12.7040   26.5010 H   0  0  0  0  0  0  0  0  0  0  0  0
   19.5310   10.6840   24.9420 O   0  0  0  0  0  0  0  0  0  0  0  0
   18.5060   13.6150   26.9780 C   0  0  0  0  0  0  0  0  0  0  0  0
   19.0330   14.5280   27.2550 H   0  0  0  0  0  0  0  0  0  0  0  0
   18.2770   13.0410   27.8760 H   0  0  0  0  0  0  0  0  0  0  0  0
   17.0540   14.0260   26.1940 S   0  0  0  0  0  0  0  0  0  0  0  0
   16.5500   12.5560   25.4810 C   0  0  0  0  0  0  0  0  0  0  0  0
   17.3420   11.3560   25.4040 C   0  0  0  0  0  0  0  0  0  0  0  0
   16.8240   10.1620   24.8490 C   0  0  0  0  0  0  0  0  0  0  0  0
   17.4310    9.2700   24.7980 H   0  0  0  0  0  0  0  0  0  0  0  0
   15.5240   10.1590   24.3730 C   0  0  0  0  0  0  0  0  0  0  0  0
   14.7000   11.3100   24.4130 C   0  0  0  0  0  0  0  0  0  0  0  0
   13.6970   11.2780   24.0130 H   0  0  0  0  0  0  0  0  0  0  0  0
   15.2000   12.4920   24.9780 C   0  0  0  0  0  0  0  0  0  0  0  0
   14.5670   13.3650   25.0370 H   0  0  0  0  0  0  0  0  0  0  0  0
   14.8440    8.5200   23.6620 Br  0  0  0  0  0  0  0  0  0  0  0  0
   16.1050   14.3280   27.2030 O   0  0  0  0  0  0  0  0  0  0  0  0
   17.3630   15.0080   25.2120 O   0  0  0  0  0  0  0  0  0  0  0  0
  1  2  1  0  0  0  0
  1  3  1  0  0  0  0
  1 28  2  0  0  0  0
  2  5  1  0  0  0  0
  2 21  1  0  0  0  0
  2 24  1  0  0  0  0
  3  4  1  0  0  0  0
  3  8  2  0  0  0  0
  5  6  1  0  0  0  0
  5  7  1  0  0  0  0
  5 12  1  0  0  0  0
  8  9  1  0  0  0  0
  8 14  1  0  0  0  0
 10 11  1  0  0  0  0
 10 14  2  0  0  0  0
 10 28  1  0  0  0  0
 12 13  1  0  0  0  0
 12 16  1  0  0  0  0
 12 17  1  0  0  0  0
 14 15  1  0  0  0  0
 16 20  2  0  0  0  0
 16 34  1  0  0  0  0
 17 18  1  0  0  0  0
 17 19  1  0  0  0  0
 17 21  1  0  0  0  0
 21 22  1  0  0  0  0
 21 23  1  0  0  0  0
 24 25  2  0  0  0  0
 24 26  1  0  0  0  0
 26 27  1  0  0  0  0
 26 28  1  0  0  0  0
 29 30  1  0  0  0  0
 29 31  1  0  0  0  0
 29 34  1  0  0  0  0
 29 40  1  0  0  0  0
 31 32  1  0  0  0  0
 31 33  1  0  0  0  0
 31 35  1  0  0  0  0
 35 36  1  0  0  0  0
 35 37  1  0  0  0  0
 35 38  1  0  0  0  0
 38 39  1  0  0  0  0
 38 49  2  0  0  0  0
 38 50  2  0  0  0  0
 39 40  1  0  0  0  0
 39 46  2  0  0  0  0
 40 41  2  0  0  0  0
 41 42  1  0  0  0  0
 41 43  1  0  0  0  0
 43 44  2  0  0  0  0
 43 48  1  0  0  0  0
 44 45  1  0  0  0  0
 44 46  1  0  0  0  0
 46 47  1  0  0  0  0
M  CHG  1  17   1
M  END
>  <PARENT_CMPD_ID>
3UDQ

>  <STANDARD_TYPE>
IC50

>  <RELATION>
=

>  <STANDARD_VALUE>
4

>  <STANDARD_UNITS>
uM

>  <COMPOUND_KEY>
13a

>  <PUBMED_ID>
22468999

>  <JOURNAL>
J.Med.Chem.

>  <YEAR>
2012

>  <VOLUME>
55

>  <FIRST_PAGE>
9069

>  <Company>
Pfizer

>  <Resolution>
2.73

>  <idx>
158

>  <Model>
Train

>  <target>
5.3979402

>  <des_pred_mlr>
6.4378901

>  <RF_Canvas>
5.8881254

>  <DNN_Canvas>
4.9002795

>  <pred_CoMFA>
5.0138001

>  <pred_COMSIA>
5.2986002

>  <pred_abm5>
5.0647593

>  <pred_ff8>
5.0372748

>  <pred_gau6>
5.5631256

>  <CID>
BACE_158

>  <active>
0

>  <des_class_bayes>
0

>  <maacs_class_bayes>
0

>  <radial_class_bayes>
0

>  <dend_class_bayes>
0

>  <molprint_class_bayes>
0

>  <RF_canvas>
0

>  <DNN_canvas>
0

$$$$
2OHU_1124
  MOE2015           3D

 55 59  0  0  0  0  0  0  0  0999 V2000
   22.8740    9.0230   24.9220 N   0  0  0  0  0  0  0  0  0  0  0  0
   22.1640   10.2140   24.9830 C   0  0  0  0  0  0  0  0  0  0  0  0
   22.3040   11.0110   26.0430 N   0  0  0  0  0  0  0  0  0  0  0  0
   21.6590   12.1690   26.1540 C   0  0  0  0  0  0  0  0  0  0  0  0
   20.7930   12.5950   25.1590 C   0  0  0  0  0  0  0  0  0  0  0  0
   20.6130   11.7960   24.0320 C   0  0  0  0  0  0  0  0  0  0  0  0
   21.2970   10.5750   23.9300 C   0  0  0  0  0  0  0  0  0  0  0  0
   21.1580    9.7480   22.7940 N   0  0  0  0  0  0  0  0  0  0  0  0
   20.4650   10.2310   21.5970 C   0  0  0  0  0  0  0  0  0  0  0  0
   21.2600   11.2570   20.8040 C   0  0  0  0  0  0  0  0  0  0  0  0
   22.5950   10.9980   20.5300 C   0  0  0  0  0  0  0  0  0  0  0  0
   23.3510   11.9100   19.7860 C   0  0  0  0  0  0  0  0  0  0  0  0
   22.7690   13.1130   19.3180 C   0  0  0  0  0  0  0  0  0  0  0  0
   21.4340   13.3830   19.5980 C   0  0  0  0  0  0  0  0  0  0  0  0
   20.6710   12.4600   20.3400 C   0  0  0  0  0  0  0  0  0  0  0  0
   19.3570   12.7450   20.6020 O   0  0  0  0  0  0  0  0  0  0  0  0
   18.5630   12.3280   19.4850 C   0  0  0  0  0  0  0  0  0  0  0  0
   17.9640   10.9730   19.7820 C   0  0  0  0  0  0  0  0  0  0  0  0
   16.9120   10.8660   20.7000 C   0  0  0  0  0  0  0  0  0  0  0  0
   16.3550    9.6110   20.9760 C   0  0  0  0  0  0  0  0  0  0  0  0
   16.8890    8.5170   20.2900 C   0  0  0  0  0  0  0  0  0  0  0  0
   17.9410    8.6830   19.3940 C   0  0  0  0  0  0  0  0  0  0  0  0
   18.4490    9.8910   19.1740 N   0  0  0  0  0  0  0  0  0  0  0  0
   24.7790   11.6290   19.5320 C   0  0  0  0  0  0  0  0  0  0  0  0
   25.3890   11.9910   18.3140 C   0  0  0  0  0  0  0  0  0  0  0  0
   26.7270   11.7570   18.1280 C   0  0  0  0  0  0  0  0  0  0  0  0
   27.4860   11.1570   19.1570 C   0  0  0  0  0  0  0  0  0  0  0  0
   28.8840   10.7680   19.2990 C   0  0  0  0  0  0  0  0  0  0  0  0
   29.0490   10.2470   20.5280 C   0  0  0  0  0  0  0  0  0  0  0  0
   27.8750   10.2500   21.2090 N   0  0  0  0  0  0  0  0  0  0  0  0
   26.8830   10.8160   20.4030 C   0  0  0  0  0  0  0  0  0  0  0  0
   25.5160   11.0740   20.5740 C   0  0  0  0  0  0  0  0  0  0  0  0
   22.7700    8.4140   24.1230 H   0  0  0  0  0  0  0  0  0  0  0  0
   23.4940    8.7660   25.6760 H   0  0  0  0  0  0  0  0  0  0  0  0
   21.8120   12.7840   27.0290 H   0  0  0  0  0  0  0  0  0  0  0  0
   20.2660   13.5320   25.2560 H   0  0  0  0  0  0  0  0  0  0  0  0
   19.9500   12.1150   23.2410 H   0  0  0  0  0  0  0  0  0  0  0  0
   21.5400    8.8130   22.8070 H   0  0  0  0  0  0  0  0  0  0  0  0
   19.5240   10.6870   21.9040 H   0  0  0  0  0  0  0  0  0  0  0  0
   20.2610    9.3780   20.9500 H   0  0  0  0  0  0  0  0  0  0  0  0
   23.0520   10.0890   20.8920 H   0  0  0  0  0  0  0  0  0  0  0  0
   23.3580   13.8160   18.7480 H   0  0  0  0  0  0  0  0  0  0  0  0
   20.9830   14.2990   19.2470 H   0  0  0  0  0  0  0  0  0  0  0  0
   19.1900   12.2630   18.5960 H   0  0  0  0  0  0  0  0  0  0  0  0
   17.7650   13.0500   19.3150 H   0  0  0  0  0  0  0  0  0  0  0  0
   16.5320   11.7480   21.1930 H   0  0  0  0  0  0  0  0  0  0  0  0
   15.5500    9.4940   21.6860 H   0  0  0  0  0  0  0  0  0  0  0  0
   16.4810    7.5310   20.4570 H   0  0  0  0  0  0  0  0  0  0  0  0
   18.3460    7.8270   18.8750 H   0  0  0  0  0  0  0  0  0  0  0  0
   24.8050   12.4510   17.5310 H   0  0  0  0  0  0  0  0  0  0  0  0
   27.2000   12.0310   17.1960 H   0  0  0  0  0  0  0  0  0  0  0  0
   29.6530   10.8790   18.5490 H   0  0  0  0  0  0  0  0  0  0  0  0
   29.9860    9.8780   20.9190 H   0  0  0  0  0  0  0  0  0  0  0  0
   27.7400    9.9000   22.1470 H   0  0  0  0  0  0  0  0  0  0  0  0
   25.0350   10.8420   21.5130 H   0  0  0  0  0  0  0  0  0  0  0  0
  1  2  1  0  0  0  0
  1 33  1  0  0  0  0
  1 34  1  0  0  0  0
  2  3  1  0  0  0  0
  2  7  2  0  0  0  0
  3  4  2  0  0  0  0
  4  5  1  0  0  0  0
  4 35  1  0  0  0  0
  5  6  2  0  0  0  0
  5 36  1  0  0  0  0
  6  7  1  0  0  0  0
  6 37  1  0  0  0  0
  7  8  1  0  0  0  0
  8  9  1  0  0  0  0
  8 38  1  0  0  0  0
  9 10  1  0  0  0  0
  9 39  1  0  0  0  0
  9 40  1  0  0  0  0
 10 11  1  0  0  0  0
 10 15  2  0  0  0  0
 11 12  2  0  0  0  0
 11 41  1  0  0  0  0
 12 13  1  0  0  0  0
 12 24  1  0  0  0  0
 13 14  2  0  0  0  0
 13 42  1  0  0  0  0
 14 15  1  0  0  0  0
 14 43  1  0  0  0  0
 15 16  1  0  0  0  0
 16 17  1  0  0  0  0
 17 18  1  0  0  0  0
 17 44  1  0  0  0  0
 17 45  1  0  0  0  0
 18 19  1  0  0  0  0
 18 23  2  0  0  0  0
 19 20  2  0  0  0  0
 19 46  1  0  0  0  0
 20 21  1  0  0  0  0
 20 47  1  0  0  0  0
 21 22  2  0  0  0  0
 21 48  1  0  0  0  0
 22 23  1  0  0  0  0
 22 49  1  0  0  0  0
 24 25  1  0  0  0  0
 24 32  2  0  0  0  0
 25 26  2  0  0  0  0
 25 50  1  0  0  0  0
 26 27  1  0  0  0  0
 26 51  1  0  0  0  0
 27 28  1  0  0  0  0
 27 31  2  0  0  0  0
 28 29  2  0  0  0  0
 28 52  1  0  0  0  0
 29 30  1  0  0  0  0
 29 53  1  0  0  0  0
 30 31  1  0  0  0  0
 30 54  1  0  0  0  0
 31 32  1  0  0  0  0
 32 55  1  0  0  0  0
M  END
>  <PARENT_CMPD_ID>
2OHU

>  <STANDARD_TYPE>
IC50

>  <RELATION>
=

>  <STANDARD_VALUE>
4.1999998

>  <STANDARD_UNITS>
uM

>  <COMPOUND_KEY>
8b

>  <PUBMED_ID>
17315857

>  <JOURNAL>
J.Med.Chem.

>  <YEAR>
2007

>  <VOLUME>
50

>  <FIRST_PAGE>
1124

>  <Company>
Astex

>  <Resolution>
2.3499999

>  <idx>
159

>  <Model>
Train

>  <target>
5.3767509

>  <des_pred_mlr>
6.5592999

>  <RF_Canvas>
5.4124589

>  <DNN_Canvas>
5.4923954

>  <pred_CoMFA>
5.6294999

>  <pred_COMSIA>
5.8859

>  <pred_abm5>
5.347846

>  <pred_ff8>
4.8720942

>  <pred_gau6>
5.2025576

>  <CID>
BACE_159

>  <active>
0

>  <des_class_bayes>
0

>  <maacs_class_bayes>
0

>  <radial_class_bayes>
0

>  <dend_class_bayes>
0

>  <molprint_class_bayes>
0

>  <RF_canvas>
0

>  <DNN_canvas>
0

$$$$
3L58_951
  MOE2015           3D

 84 86  0  0  1  0  0  0  0  0999 V2000
   26.9640   15.7770   24.2720 C   0  0  0  0  0  0  0  0  0  0  0  0
   25.6780   16.1290   24.7690 C   0  0  0  0  0  0  0  0  0  0  0  0
   24.5610   15.2810   24.5160 C   0  0  0  0  0  0  0  0  0  0  0  0
   24.7260   14.0800   23.7660 C   0  0  0  0  0  0  0  0  0  0  0  0
   26.0180   13.7230   23.2760 C   0  0  0  0  0  0  0  0  0  0  0  0
   27.1420   14.5700   23.5340 C   0  0  0  0  0  0  0  0  0  0  0  0
   28.5000   14.1770   23.1240 C   0  0  0  0  0  0  0  0  0  0  0  0
   28.7250   13.9740   21.7860 N   0  0  0  0  0  0  0  0  0  0  0  0
   29.4070   14.0330   23.9440 O   0  0  0  0  0  0  0  0  0  0  0  0
   27.7920   14.3880   20.7270 C   0  0  0  0  0  0  0  0  0  0  0  0
   28.4480   15.3600   19.7620 C   0  0  0  0  0  0  0  0  0  0  0  0
   28.9060   16.6280   20.4520 C   0  0  0  0  0  0  0  0  0  0  0  0
   29.9950   13.3470   21.4260 C   0  0  0  0  0  0  0  0  0  0  0  0
   29.8090   11.8900   21.0030 C   0  0  0  0  0  0  0  0  0  0  0  0
   29.1660   11.0530   22.0750 C   0  0  0  0  0  0  0  0  0  0  0  0
   23.5620   13.2230   23.4990 C   0  0  0  0  0  0  0  0  0  0  0  0
   23.8580   11.9130   23.3780 N   0  0  0  0  0  0  0  0  0  0  0  0
   22.4070   13.6500   23.3960 O   0  0  0  0  0  0  0  0  0  0  0  0
   22.7880   10.9910   22.9980 C   0  0  3  0  0  0  0  0  0  0  0  0
   22.3100   10.2220   24.2390 C   0  0  3  0  0  0  0  0  0  0  0  0
   23.2670   10.0260   21.9020 C   0  0  0  0  0  0  0  0  0  0  0  0
   23.4490    9.7290   24.9470 O   0  0  0  0  0  0  0  0  0  0  0  0
   21.5010   11.1400   25.1640 C   0  0  0  0  0  0  0  0  0  0  0  0
   20.8830   10.3380   26.2350 N   0  3  0  0  0  0  0  0  0  0  0  0
   19.9580   11.1490   27.0580 C   0  0  0  0  0  0  0  0  0  0  0  0
   18.7510   11.6580   26.2860 C   0  0  0  0  0  0  0  0  0  0  0  0
   23.8480   10.8060   20.7400 C   0  0  0  0  0  0  0  0  0  0  0  0
   25.1990   10.5900   20.3390 C   0  0  0  0  0  0  0  0  0  0  0  0
   25.7460   11.3350   19.2540 C   0  0  0  0  0  0  0  0  0  0  0  0
   24.9440   12.2940   18.5720 C   0  0  0  0  0  0  0  0  0  0  0  0
   23.5960   12.5100   18.9760 C   0  0  0  0  0  0  0  0  0  0  0  0
   23.0490   11.7640   20.0530 C   0  0  0  0  0  0  0  0  0  0  0  0
   18.4200   13.0470   26.3260 C   0  0  0  0  0  0  0  0  0  0  0  0
   17.2990   13.5340   25.5880 C   0  0  0  0  0  0  0  0  0  0  0  0
   16.5060   12.6320   24.8090 C   0  0  0  0  0  0  0  0  0  0  0  0
   16.8330   11.2430   24.7670 C   0  0  0  0  0  0  0  0  0  0  0  0
   17.9560   10.7580   25.5150 C   0  0  0  0  0  0  0  0  0  0  0  0
   16.0780   10.3910   23.9710 O   0  0  0  0  0  0  0  0  0  0  0  0
   15.6790    9.1990   24.6600 C   0  0  0  0  0  0  0  0  0  0  0  0
   25.5070   17.3620   25.5530 C   0  0  0  0  0  0  0  0  0  0  0  0
   27.0120   11.1390   18.8780 F   0  0  0  0  0  0  0  0  0  0  0  0
   22.8500   13.4300   18.3580 F   0  0  0  0  0  0  0  0  0  0  0  0
   27.8080   16.4260   24.4540 H   0  0  0  0  0  0  0  0  0  0  0  0
   23.5860   15.5490   24.8940 H   0  0  0  0  0  0  0  0  0  0  0  0
   26.1470   12.8120   22.7100 H   0  0  0  0  0  0  0  0  0  0  0  0
   26.9280   14.8700   21.1840 H   0  0  0  0  0  0  0  0  0  0  0  0
   27.4670   13.5060   20.1760 H   0  0  0  0  0  0  0  0  0  0  0  0
   27.7300   15.6230   18.9850 H   0  0  0  0  0  0  0  0  0  0  0  0
   29.3120   14.8750   19.3080 H   0  0  0  0  0  0  0  0  0  0  0  0
   28.0490   17.1220   20.9100 H   0  0  0  0  0  0  0  0  0  0  0  0
   29.3620   17.2950   19.7210 H   0  0  0  0  0  0  0  0  0  0  0  0
   29.6360   16.3790   21.2220 H   0  0  0  0  0  0  0  0  0  0  0  0
   30.6620   13.3820   22.2870 H   0  0  0  0  0  0  0  0  0  0  0  0
   30.4400   13.9000   20.5990 H   0  0  0  0  0  0  0  0  0  0  0  0
   30.7860   11.4670   20.7690 H   0  0  0  0  0  0  0  0  0  0  0  0
   29.1790   11.8620   20.1140 H   0  0  0  0  0  0  0  0  0  0  0  0
   29.7860   11.0710   22.9710 H   0  0  0  0  0  0  0  0  0  0  0  0
   29.0660   10.0260   21.7230 H   0  0  0  0  0  0  0  0  0  0  0  0
   28.1800   11.4550   22.3070 H   0  0  0  0  0  0  0  0  0  0  0  0
   24.7960   11.5770   23.5460 H   0  0  0  0  0  0  0  0  0  0  0  0
   21.9510   11.5600   22.5930 H   0  0  0  0  0  0  0  0  0  0  0  0
   21.6740    9.3960   23.9210 H   0  0  0  0  0  0  0  0  0  0  0  0
   22.4240    9.4310   21.5510 H   0  0  0  0  0  0  0  0  0  0  0  0
   24.0320    9.3660   22.3120 H   0  0  0  0  0  0  0  0  0  0  0  0
   23.9790   10.4860   25.2070 H   0  0  0  0  0  0  0  0  0  0  0  0
   20.7220   11.6400   24.5890 H   0  0  0  0  0  0  0  0  0  0  0  0
   22.1620   11.8860   25.6040 H   0  0  0  0  0  0  0  0  0  0  0  0
   21.6110    9.9680   26.8290 H   0  0  0  0  0  0  0  0  0  0  0  0
   20.3680    9.5760   25.8180 H   0  0  0  0  0  0  0  0  0  0  0  0
   20.5050   12.0070   27.4490 H   0  0  0  0  0  0  0  0  0  0  0  0
   19.6040   10.5350   27.8870 H   0  0  0  0  0  0  0  0  0  0  0  0
   25.8070    9.8630   20.8570 H   0  0  0  0  0  0  0  0  0  0  0  0
   25.3580   12.8570   17.7490 H   0  0  0  0  0  0  0  0  0  0  0  0
   22.0240   11.9240   20.3520 H   0  0  0  0  0  0  0  0  0  0  0  0
   19.0170   13.7280   26.9140 H   0  0  0  0  0  0  0  0  0  0  0  0
   17.0490   14.5840   25.6170 H   0  0  0  0  0  0  0  0  0  0  0  0
   15.6580   13.0030   24.2520 H   0  0  0  0  0  0  0  0  0  0  0  0
   18.2010    9.7060   25.4950 H   0  0  0  0  0  0  0  0  0  0  0  0
   15.0920    8.5710   23.9900 H   0  0  0  0  0  0  0  0  0  0  0  0
   15.0770    9.4660   25.5280 H   0  0  0  0  0  0  0  0  0  0  0  0
   16.5650    8.6540   24.9860 H   0  0  0  0  0  0  0  0  0  0  0  0
   26.4660   17.8730   25.6400 H   0  0  0  0  0  0  0  0  0  0  0  0
   25.1380   17.1120   26.5480 H   0  0  0  0  0  0  0  0  0  0  0  0
   24.7910   18.0140   25.0530 H   0  0  0  0  0  0  0  0  0  0  0  0
  1  2  1  0  0  0  0
  1  6  2  0  0  0  0
  1 43  1  0  0  0  0
  2  3  2  0  0  0  0
  2 40  1  0  0  0  0
  3  4  1  0  0  0  0
  3 44  1  0  0  0  0
  4  5  2  0  0  0  0
  4 16  1  0  0  0  0
  5  6  1  0  0  0  0
  5 45  1  0  0  0  0
  6  7  1  0  0  0  0
  7  8  1  0  0  0  0
  7  9  2  0  0  0  0
  8 10  1  0  0  0  0
  8 13  1  0  0  0  0
 10 11  1  0  0  0  0
 10 46  1  0  0  0  0
 10 47  1  0  0  0  0
 11 12  1  0  0  0  0
 11 48  1  0  0  0  0
 11 49  1  0  0  0  0
 12 50  1  0  0  0  0
 12 51  1  0  0  0  0
 12 52  1  0  0  0  0
 13 14  1  0  0  0  0
 13 53  1  0  0  0  0
 13 54  1  0  0  0  0
 14 15  1  0  0  0  0
 14 55  1  0  0  0  0
 14 56  1  0  0  0  0
 15 57  1  0  0  0  0
 15 58  1  0  0  0  0
 15 59  1  0  0  0  0
 16 17  1  0  0  0  0
 16 18  2  0  0  0  0
 17 19  1  0  0  0  0
 17 60  1  0  0  0  0
 19 20  1  0  0  0  0
 19 21  1  0  0  0  0
 19 61  1  0  0  0  0
 20 22  1  0  0  0  0
 20 23  1  0  0  0  0
 20 62  1  0  0  0  0
 21 27  1  0  0  0  0
 21 63  1  0  0  0  0
 21 64  1  0  0  0  0
 22 65  1  0  0  0  0
 23 24  1  0  0  0  0
 23 66  1  0  0  0  0
 23 67  1  0  0  0  0
 24 25  1  0  0  0  0
 24 68  1  0  0  0  0
 24 69  1  0  0  0  0
 25 26  1  0  0  0  0
 25 70  1  0  0  0  0
 25 71  1  0  0  0  0
 26 33  1  0  0  0  0
 26 37  2  0  0  0  0
 27 28  1  0  0  0  0
 27 32  2  0  0  0  0
 28 29  2  0  0  0  0
 28 72  1  0  0  0  0
 29 30  1  0  0  0  0
 29 41  1  0  0  0  0
 30 31  2  0  0  0  0
 30 73  1  0  0  0  0
 31 32  1  0  0  0  0
 31 42  1  0  0  0  0
 32 74  1  0  0  0  0
 33 34  2  0  0  0  0
 33 75  1  0  0  0  0
 34 35  1  0  0  0  0
 34 76  1  0  0  0  0
 35 36  2  0  0  0  0
 35 77  1  0  0  0  0
 36 37  1  0  0  0  0
 36 38  1  0  0  0  0
 37 78  1  0  0  0  0
 38 39  1  0  0  0  0
 39 79  1  0  0  0  0
 39 80  1  0  0  0  0
 39 81  1  0  0  0  0
 40 82  1  0  0  0  0
 40 83  1  0  0  0  0
 40 84  1  0  0  0  0
M  CHG  1  24   1
M  END
>  <PARENT_CMPD_ID>
3L58

>  <STANDARD_TYPE>
IC50

>  <RELATION>
=

>  <STANDARD_VALUE>
4.3000002

>  <STANDARD_UNITS>
uM

>  <COMPOUND_KEY>
2

>  <PUBMED_ID>
20043696

>  <JOURNAL>
J.Med.Chem.

>  <YEAR>
2010

>  <VOLUME>
53

>  <FIRST_PAGE>
951

>  <Company>
Schering

>  <Resolution>
1.8

>  <idx>
160

>  <Model>
Train

>  <target>
5.3665314

>  <des_pred_mlr>
7.5047402

>  <RF_Canvas>
6.9950337

>  <DNN_Canvas>
7.2811136

>  <pred_CoMFA>
6.8204002

>  <pred_COMSIA>
7.8729

>  <pred_abm5>
6.9546585

>  <pred_ff8>
6.7780457

>  <pred_gau6>
7.0041752

>  <CID>
BACE_160

>  <active>
0

>  <des_class_bayes>
1

>  <maacs_class_bayes>
1

>  <radial_class_bayes>
0

>  <dend_class_bayes>
1

>  <molprint_class_bayes>
1

>  <RF_canvas>
1

>  <DNN_canvas>
1

$$$$
3VV7_8838
  MOE2015           3D

 47 50  0  0  1  0  0  0  0  0999 V2000
   21.4220   13.6000   23.9360 O   0  0  0  0  0  0  0  0  0  0  0  0
   21.4370   12.3810   23.6260 C   0  0  0  0  0  0  0  0  0  0  0  0
   22.1890   11.4700   24.4130 N   0  0  0  0  0  0  0  0  0  0  0  0
   22.9430   11.9880   25.5630 C   0  0  0  0  0  0  0  0  0  0  0  0
   22.7860   13.0640   25.6460 H   0  0  0  0  0  0  0  0  0  0  0  0
   24.0050   11.7850   25.4220 H   0  0  0  0  0  0  0  0  0  0  0  0
   22.5970   11.4990   26.4740 H   0  0  0  0  0  0  0  0  0  0  0  0
   22.2010   10.0900   24.0540 C   0  0  0  0  0  0  0  0  0  0  0  0
   22.9290    9.2010   24.8060 N   0  0  0  0  0  0  0  0  0  0  0  0
   22.9440    8.2220   24.5570 H   0  0  0  0  0  0  0  0  0  0  0  0
   23.4490    9.5260   25.6080 H   0  0  0  0  0  0  0  0  0  0  0  0
   21.4840    9.6700   22.9560 N   0  0  0  0  0  0  0  0  0  0  0  0
   20.7610   10.5420   22.1830 C   0  0  0  0  0  0  0  0  0  0  0  0
   20.7240   11.9100   22.5170 C   0  0  0  0  0  0  0  0  0  0  0  0
   20.1450   12.5960   21.9170 H   0  0  0  0  0  0  0  0  0  0  0  0
   19.9790   10.0590   21.0090 C   0  0  3  0  0  0  0  0  0  0  0  0
   19.4110    9.3040   21.5520 H   0  0  0  0  0  0  0  0  0  0  0  0
   19.7340   11.2050   20.0090 C   0  0  0  0  0  0  0  0  0  0  0  0
   20.1570   12.1910   20.1980 H   0  0  0  0  0  0  0  0  0  0  0  0
   18.7590   11.3130   19.5340 H   0  0  0  0  0  0  0  0  0  0  0  0
   20.6480   10.0470   19.6160 C   0  0  3  0  0  0  0  0  0  0  0  0
   20.7010    9.2860   18.8370 H   0  0  0  0  0  0  0  0  0  0  0  0
   22.0890   10.4350   19.4510 C   0  0  0  0  0  0  0  0  0  0  0  0
   22.4580   11.5770   18.7180 C   0  0  0  0  0  0  0  0  0  0  0  0
   21.6900   12.2010   18.2860 H   0  0  0  0  0  0  0  0  0  0  0  0
   23.8050   11.9200   18.5380 C   0  0  0  0  0  0  0  0  0  0  0  0
   24.0680   12.8110   17.9870 H   0  0  0  0  0  0  0  0  0  0  0  0
   24.8040   11.1090   19.0720 C   0  0  0  0  0  0  0  0  0  0  0  0
   25.8440   11.3640   18.9340 H   0  0  0  0  0  0  0  0  0  0  0  0
   24.4470    9.9600   19.7900 C   0  0  0  0  0  0  0  0  0  0  0  0
   23.1050    9.6170   19.9640 C   0  0  0  0  0  0  0  0  0  0  0  0
   22.8480    8.7140   20.4980 H   0  0  0  0  0  0  0  0  0  0  0  0
   25.5180    9.0950   20.3520 C   0  0  0  0  0  0  0  0  0  0  0  0
   25.3240    7.7200   20.5200 C   0  0  0  0  0  0  0  0  0  0  0  0
   24.3820    7.2670   20.2480 H   0  0  0  0  0  0  0  0  0  0  0  0
   26.3560    6.9370   21.0410 C   0  0  0  0  0  0  0  0  0  0  0  0
   26.2100    5.8780   21.1940 H   0  0  0  0  0  0  0  0  0  0  0  0
   27.5790    7.5310   21.3640 C   0  0  0  0  0  0  0  0  0  0  0  0
   28.3830    6.9200   21.7470 H   0  0  0  0  0  0  0  0  0  0  0  0
   27.7750    8.9010   21.1980 C   0  0  0  0  0  0  0  0  0  0  0  0
   26.7370    9.6730   20.6840 C   0  0  0  0  0  0  0  0  0  0  0  0
   26.8810   10.7340   20.5420 H   0  0  0  0  0  0  0  0  0  0  0  0
   28.9840    9.4840   21.5330 O   0  0  0  0  0  0  0  0  0  0  0  0
   29.1220   10.8830   21.8170 C   0  0  0  0  0  0  0  0  0  0  0  0
   30.1630   11.1050   22.0540 H   0  0  0  0  0  0  0  0  0  0  0  0
   28.4920   11.1450   22.6670 H   0  0  0  0  0  0  0  0  0  0  0  0
   28.8160   11.4620   20.9460 H   0  0  0  0  0  0  0  0  0  0  0  0
  1  2  2  0  0  0  0
  2  3  1  0  0  0  0
  2 14  1  0  0  0  0
  3  4  1  0  0  0  0
  3  8  1  0  0  0  0
  4  5  1  0  0  0  0
  4  6  1  0  0  0  0
  4  7  1  0  0  0  0
  8  9  1  0  0  0  0
  8 12  2  0  0  0  0
  9 10  1  0  0  0  0
  9 11  1  0  0  0  0
 12 13  1  0  0  0  0
 13 14  2  0  0  0  0
 13 16  1  0  0  0  0
 14 15  1  0  0  0  0
 16 17  1  0  0  0  0
 16 18  1  0  0  0  0
 16 21  1  0  0  0  0
 18 19  1  0  0  0  0
 18 20  1  0  0  0  0
 18 21  1  0  0  0  0
 21 22  1  0  0  0  0
 21 23  1  0  0  0  0
 23 24  1  0  0  0  0
 23 31  2  0  0  0  0
 24 25  1  0  0  0  0
 24 26  2  0  0  0  0
 26 27  1  0  0  0  0
 26 28  1  0  0  0  0
 28 29  1  0  0  0  0
 28 30  2  0  0  0  0
 30 31  1  0  0  0  0
 30 33  1  0  0  0  0
 31 32  1  0  0  0  0
 33 34  1  0  0  0  0
 33 41  2  0  0  0  0
 34 35  1  0  0  0  0
 34 36  2  0  0  0  0
 36 37  1  0  0  0  0
 36 38  1  0  0  0  0
 38 39  1  0  0  0  0
 38 40  2  0  0  0  0
 40 41  1  0  0  0  0
 40 43  1  0  0  0  0
 41 42  1  0  0  0  0
 43 44  1  0  0  0  0
 44 45  1  0  0  0  0
 44 46  1  0  0  0  0
 44 47  1  0  0  0  0
M  END
>  <PARENT_CMPD_ID>
3VV7

>  <STANDARD_TYPE>
IC50

>  <RELATION>
=

>  <STANDARD_VALUE>
4.5999999

>  <STANDARD_UNITS>
uM

>  <COMPOUND_KEY>
33

>  <PUBMED_ID>
22998419

>  <JOURNAL>
J.Med.Chem.

>  <YEAR>
2012

>  <VOLUME>
55

>  <FIRST_PAGE>
8838

>  <Company>
Shionogi

>  <Resolution>
2.0999999

>  <idx>
161

>  <Model>
Train

>  <target>
5.3372421

>  <des_pred_mlr>
5.9509201

>  <RF_Canvas>
5.3254848

>  <DNN_Canvas>
5.1493087

>  <pred_CoMFA>
5.1912999

>  <pred_COMSIA>
5.1075001

>  <pred_abm5>
4.827889

>  <pred_ff8>
4.943491

>  <pred_gau6>
5.1948705

>  <CID>
BACE_161

>  <active>
0

>  <des_class_bayes>
0

>  <maacs_class_bayes>
0

>  <radial_class_bayes>
0

>  <dend_class_bayes>
0

>  <molprint_class_bayes>
0

>  <RF_canvas>
0

>  <DNN_canvas>
0

$$$$
3UDY_9069
  MOE2015           3D

 44 47  0  0  1  0  0  0  0  0999 V2000
   13.4920   11.6650   23.4300 C   0  0  0  0  0  0  0  0  0  0  0  0
   24.2650   10.1980   19.4690 C   0  0  0  0  0  0  0  0  0  0  0  0
   24.7280    9.3990   18.9090 H   0  0  0  0  0  0  0  0  0  0  0  0
   24.2160   11.4730   18.9310 C   0  0  0  0  0  0  0  0  0  0  0  0
   24.6280   11.6500   17.9480 H   0  0  0  0  0  0  0  0  0  0  0  0
   15.3560   12.7170   24.5830 C   0  0  0  0  0  0  0  0  0  0  0  0
   14.8810   13.6820   24.4880 H   0  0  0  0  0  0  0  0  0  0  0  0
   23.7280    9.9390   20.7120 C   0  0  0  0  0  0  0  0  0  0  0  0
   23.7580    8.9470   21.1390 H   0  0  0  0  0  0  0  0  0  0  0  0
   16.6020   12.6100   25.1660 C   0  0  0  0  0  0  0  0  0  0  0  0
   17.1010   13.4980   25.5250 H   0  0  0  0  0  0  0  0  0  0  0  0
   23.6510   12.5200   19.6270 C   0  0  0  0  0  0  0  0  0  0  0  0
   23.6300   13.5190   19.2180 H   0  0  0  0  0  0  0  0  0  0  0  0
   16.5920   10.2650   24.8170 C   0  0  0  0  0  0  0  0  0  0  0  0
   17.0720    9.3010   24.8960 H   0  0  0  0  0  0  0  0  0  0  0  0
   14.7230   11.5850   24.1240 C   0  0  0  0  0  0  0  0  0  0  0  0
   23.1520   10.9890   21.3900 C   0  0  0  0  0  0  0  0  0  0  0  0
   17.2160   11.3850   25.2960 C   0  0  0  0  0  0  0  0  0  0  0  0
   23.1170   12.2430   20.8600 C   0  0  0  0  0  0  0  0  0  0  0  0
   15.3550   10.3730   24.2360 C   0  0  0  0  0  0  0  0  0  0  0  0
   22.1830   12.4450   22.9000 C   0  0  0  0  0  0  0  0  0  0  0  0
   20.5910   10.2800   25.1240 C   0  0  0  0  0  0  0  0  0  0  0  0
   21.2160   10.2150   22.7510 C   0  0  0  0  0  0  0  0  0  0  0  0
   20.3630   10.8930   22.7220 H   0  0  0  0  0  0  0  0  0  0  0  0
   21.1580    9.5220   21.9120 H   0  0  0  0  0  0  0  0  0  0  0  0
   23.3920   10.4470   23.8150 C   0  0  0  0  0  0  0  0  0  0  0  0
   23.6010   11.2290   24.5450 H   0  0  0  0  0  0  0  0  0  0  0  0
   24.3300   10.0800   23.3970 H   0  0  0  0  0  0  0  0  0  0  0  0
   21.2560    9.4680   24.0550 C   0  0  3  0  0  0  0  0  0  0  0  0
   20.7640    8.5020   23.9420 H   0  0  0  0  0  0  0  0  0  0  0  0
   22.5080   10.9850   22.7150 C   0  0  3  0  0  0  0  0  0  0  0  0
   18.5850   11.2120   25.8590 C   0  0  0  0  0  0  0  0  0  0  0  0
   18.5480   10.6930   26.8170 H   0  0  0  0  0  0  0  0  0  0  0  0
   19.0760   12.1760   25.9880 H   0  0  0  0  0  0  0  0  0  0  0  0
   12.4670   11.7030   22.8820 N   0  0  0  0  0  0  0  0  0  0  0  0
   22.5150   13.1250   21.7420 N   0  0  0  0  0  0  0  0  0  0  0  0
   22.3460   14.1050   21.5680 H   0  0  0  0  0  0  0  0  0  0  0  0
   22.6630    9.3550   24.4450 N   0  3  0  0  0  0  0  0  0  0  0  0
   22.7470    9.4210   25.4490 H   0  0  0  0  0  0  0  0  0  0  0  0
   23.0350    8.4690   24.1330 H   0  0  0  0  0  0  0  0  0  0  0  0
   21.6590   12.8890   23.9110 O   0  0  0  0  0  0  0  0  0  0  0  0
   21.1710   10.6930   26.1140 O   0  0  0  0  0  0  0  0  0  0  0  0
   19.2640   10.4210   24.8760 O   0  0  0  0  0  0  0  0  0  0  0  0
   14.5620    8.8010   23.5630 Br  0  0  0  0  0  0  0  0  0  0  0  0
  1 16  1  0  0  0  0
  1 35  3  0  0  0  0
  2  3  1  0  0  0  0
  2  4  2  0  0  0  0
  2  8  1  0  0  0  0
  4  5  1  0  0  0  0
  4 12  1  0  0  0  0
  6  7  1  0  0  0  0
  6 10  1  0  0  0  0
  6 16  2  0  0  0  0
  8  9  1  0  0  0  0
  8 17  2  0  0  0  0
 10 11  1  0  0  0  0
 10 18  2  0  0  0  0
 12 13  1  0  0  0  0
 12 19  2  0  0  0  0
 14 15  1  0  0  0  0
 14 18  1  0  0  0  0
 14 20  2  0  0  0  0
 16 20  1  0  0  0  0
 17 19  1  0  0  0  0
 17 31  1  0  0  0  0
 18 32  1  0  0  0  0
 19 36  1  0  0  0  0
 20 44  1  0  0  0  0
 21 31  1  0  0  0  0
 21 36  1  0  0  0  0
 21 41  2  0  0  0  0
 22 29  1  0  0  0  0
 22 42  2  0  0  0  0
 22 43  1  0  0  0  0
 23 24  1  0  0  0  0
 23 25  1  0  0  0  0
 23 29  1  0  0  0  0
 23 31  1  0  0  0  0
 26 27  1  0  0  0  0
 26 28  1  0  0  0  0
 26 31  1  0  0  0  0
 26 38  1  0  0  0  0
 29 30  1  0  0  0  0
 29 38  1  0  0  0  0
 32 33  1  0  0  0  0
 32 34  1  0  0  0  0
 32 43  1  0  0  0  0
 36 37  1  0  0  0  0
 38 39  1  0  0  0  0
 38 40  1  0  0  0  0
M  CHG  1  38   1
M  END
>  <PARENT_CMPD_ID>
3UDY

>  <STANDARD_TYPE>
IC50

>  <RELATION>
=

>  <STANDARD_VALUE>
6.2600002

>  <STANDARD_UNITS>
uM

>  <COMPOUND_KEY>
11

>  <PUBMED_ID>
22468999

>  <JOURNAL>
J.Med.Chem.

>  <YEAR>
2012

>  <VOLUME>
55

>  <FIRST_PAGE>
9069

>  <Company>
Pfizer

>  <Resolution>
2

>  <idx>
162

>  <Model>
Train

>  <target>
5.2034259

>  <des_pred_mlr>
6.0673099

>  <RF_Canvas>
5.3005023

>  <DNN_Canvas>
4.7496371

>  <pred_CoMFA>
4.9647999

>  <pred_COMSIA>
4.9492998

>  <pred_abm5>
4.8246183

>  <pred_ff8>
5.081749

>  <pred_gau6>
4.9390059

>  <CID>
BACE_162

>  <active>
0

>  <des_class_bayes>
0

>  <maacs_class_bayes>
0

>  <radial_class_bayes>
0

>  <dend_class_bayes>
0

>  <molprint_class_bayes>
0

>  <RF_canvas>
0

>  <DNN_canvas>
0

$$$$
4B70_4181
  MOE2015           3D

 39 41  0  0  1  0  0  0  0  0999 V2000
   21.0520    9.7330   21.0380 C   0  0  0  0  0  0  0  0  0  0  0  0
   22.2140   10.3930   21.7630 C   0  0  3  0  0  0  0  0  0  0  0  0
   22.5510    9.3690   22.7460 N   0  3  0  0  0  0  0  0  0  0  0  0
   22.6900    9.7410   23.9800 C   0  0  0  0  0  0  0  0  0  0  0  0
   22.6030   11.1700   24.4640 C   0  0  0  0  0  0  0  0  0  0  0  0
   22.5900   12.1520   23.3060 C   0  0  0  0  0  0  0  0  0  0  0  0
   21.7150   11.6290   22.3010 O   0  0  0  0  0  0  0  0  0  0  0  0
   22.9660    8.8250   24.9540 N   0  0  0  0  0  0  0  0  0  0  0  0
   23.3150   10.7130   20.7750 C   0  0  0  0  0  0  0  0  0  0  0  0
   23.0000   11.2180   19.5260 C   0  0  0  0  0  0  0  0  0  0  0  0
   23.9990   11.5260   18.6260 C   0  0  0  0  0  0  0  0  0  0  0  0
   25.3300   11.3680   18.9670 C   0  0  0  0  0  0  0  0  0  0  0  0
   25.6870   10.8600   20.2030 C   0  0  0  0  0  0  0  0  0  0  0  0
   24.6530   10.5430   21.0840 C   0  0  0  0  0  0  0  0  0  0  0  0
   27.0880   10.7720   20.6060 C   0  0  0  0  0  0  0  0  0  0  0  0
   28.0460   11.6330   20.0820 C   0  0  0  0  0  0  0  0  0  0  0  0
   29.3660   11.6410   20.5030 C   0  0  0  0  0  0  0  0  0  0  0  0
   29.7800   10.7660   21.4870 C   0  0  0  0  0  0  0  0  0  0  0  0
   28.8480    9.8840   22.0000 C   0  0  0  0  0  0  0  0  0  0  0  0
   27.5280    9.8790   21.5650 C   0  0  0  0  0  0  0  0  0  0  0  0
   29.3120    8.8020   23.2460 Cl  0  0  0  0  0  0  0  0  0  0  0  0
   20.2610    9.5040   21.7520 H   0  0  0  0  0  0  0  0  0  0  0  0
   21.3940    8.8120   20.5670 H   0  0  0  0  0  0  0  0  0  0  0  0
   20.6680   10.4100   20.2750 H   0  0  0  0  0  0  0  0  0  0  0  0
   22.6720    8.4040   22.4740 H   0  0  0  0  0  0  0  0  0  0  0  0
   23.4640   11.3820   25.0980 H   0  0  0  0  0  0  0  0  0  0  0  0
   21.6870   11.2930   25.0420 H   0  0  0  0  0  0  0  0  0  0  0  0
   23.5960   12.2620   22.9010 H   0  0  0  0  0  0  0  0  0  0  0  0
   22.2270   13.1220   23.6460 H   0  0  0  0  0  0  0  0  0  0  0  0
   23.0640    7.8480   24.7160 H   0  0  0  0  0  0  0  0  0  0  0  0
   23.0730    9.1240   25.9130 H   0  0  0  0  0  0  0  0  0  0  0  0
   21.9660   11.3720   19.2540 H   0  0  0  0  0  0  0  0  0  0  0  0
   23.7390   11.8940   17.6450 H   0  0  0  0  0  0  0  0  0  0  0  0
   26.0990   11.6440   18.2610 H   0  0  0  0  0  0  0  0  0  0  0  0
   24.9090   10.1450   22.0550 H   0  0  0  0  0  0  0  0  0  0  0  0
   27.7470   12.3280   19.3110 H   0  0  0  0  0  0  0  0  0  0  0  0
   30.0700   12.3310   20.0620 H   0  0  0  0  0  0  0  0  0  0  0  0
   30.7990   10.7710   21.8440 H   0  0  0  0  0  0  0  0  0  0  0  0
   26.8340    9.1650   21.9830 H   0  0  0  0  0  0  0  0  0  0  0  0
  1  2  1  0  0  0  0
  1 22  1  0  0  0  0
  1 23  1  0  0  0  0
  1 24  1  0  0  0  0
  2  3  1  0  0  0  0
  2  7  1  0  0  0  0
  2  9  1  0  0  0  0
  3  4  2  0  0  0  0
  3 25  1  0  0  0  0
  4  5  1  0  0  0  0
  4  8  1  0  0  0  0
  5  6  1  0  0  0  0
  5 26  1  0  0  0  0
  5 27  1  0  0  0  0
  6  7  1  0  0  0  0
  6 28  1  0  0  0  0
  6 29  1  0  0  0  0
  8 30  1  0  0  0  0
  8 31  1  0  0  0  0
  9 10  1  0  0  0  0
  9 14  2  0  0  0  0
 10 11  2  0  0  0  0
 10 32  1  0  0  0  0
 11 12  1  0  0  0  0
 11 33  1  0  0  0  0
 12 13  2  0  0  0  0
 12 34  1  0  0  0  0
 13 14  1  0  0  0  0
 13 15  1  0  0  0  0
 14 35  1  0  0  0  0
 15 16  1  0  0  0  0
 15 20  2  0  0  0  0
 16 17  2  0  0  0  0
 16 36  1  0  0  0  0
 17 18  1  0  0  0  0
 17 37  1  0  0  0  0
 18 19  2  0  0  0  0
 18 38  1  0  0  0  0
 19 20  1  0  0  0  0
 19 21  1  0  0  0  0
 20 39  1  0  0  0  0
M  CHG  1   3   1
M  END
>  <PARENT_CMPD_ID>
4B70

>  <STANDARD_TYPE>
IC50

>  <RELATION>
=

>  <STANDARD_VALUE>
6.3000002

>  <STANDARD_UNITS>
uM

>  <COMPOUND_KEY>
19b

>  <PUBMED_ID>
23126626

>  <JOURNAL>
J.Med.Chem.

>  <YEAR>
2013

>  <VOLUME>
56

>  <FIRST_PAGE>
4181

>  <Company>
AstraZeneca

>  <Resolution>
1.6

>  <idx>
163

>  <Model>
Train

>  <target>
5.2006593

>  <des_pred_mlr>
5.2479501

>  <RF_Canvas>
4.9759831

>  <DNN_Canvas>
5.0404272

>  <pred_CoMFA>
5.1522999

>  <pred_COMSIA>
5.5718002

>  <pred_abm5>
4.9905658

>  <pred_ff8>
5.324482

>  <pred_gau6>
5.1218953

>  <CID>
BACE_163

>  <active>
0

>  <des_class_bayes>
0

>  <maacs_class_bayes>
0

>  <radial_class_bayes>
0

>  <dend_class_bayes>
0

>  <molprint_class_bayes>
0

>  <RF_canvas>
0

>  <DNN_canvas>
0

$$$$
3L5C_951
  MOE2015           3D

 60 62  0  0  1  0  0  0  0  0999 V2000
   21.5320   12.5560   25.2870 C   0  0  3  0  0  0  0  0  0  0  0  0
   22.1360   11.2790   25.6350 N   0  0  0  0  0  0  0  0  0  0  0  0
   21.6820   10.8890   26.4490 H   0  0  0  0  0  0  0  0  0  0  0  0
   20.4120   13.1500   23.1880 O   0  0  0  0  0  0  0  0  0  0  0  0
   21.9640   10.4650   24.5720 C   0  0  0  0  0  0  0  0  0  0  0  0
   21.3140   11.0450   23.5370 N   0  0  0  0  0  0  0  0  0  0  0  0
   25.7380   14.1150   19.9000 O   0  0  0  0  0  0  0  0  0  0  0  0
   21.0050   12.3130   23.8730 C   0  0  0  0  0  0  0  0  0  0  0  0
   22.3930    9.2070   24.5290 N   0  0  0  0  0  0  0  0  0  0  0  0
   22.8780    8.8110   25.3220 H   0  0  0  0  0  0  0  0  0  0  0  0
   22.5880   13.6720   25.1920 C   0  0  0  0  0  0  0  0  0  0  0  0
   25.1510   13.2280   17.8960 N   0  0  0  0  0  0  0  0  0  0  0  0
   20.3790   12.8820   26.2260 C   0  0  0  0  0  0  0  0  0  0  0  0
   25.2390   15.4780   18.1490 N   0  0  0  0  0  0  0  0  0  0  0  0
   19.6410   11.6190   26.6720 C   0  0  0  0  0  0  0  0  0  0  0  0
   26.2720   21.2530   21.6100 N   0  0  0  0  0  0  0  0  0  0  0  0
   18.1480   11.7180   26.3650 C   0  0  0  0  0  0  0  0  0  0  0  0
   19.9240   11.3030   28.1390 C   0  0  0  0  0  0  0  0  0  0  0  0
   21.0530   10.4270   22.2360 C   0  0  0  0  0  0  0  0  0  0  0  0
   22.1400   10.7960   21.2500 C   0  0  0  0  0  0  0  0  0  0  0  0
   23.3100    9.9890   21.1400 C   0  0  0  0  0  0  0  0  0  0  0  0
   24.3340   10.3420   20.2140 C   0  0  0  0  0  0  0  0  0  0  0  0
   24.1930   11.4980   19.3950 C   0  0  0  0  0  0  0  0  0  0  0  0
   23.0200   12.3040   19.5070 C   0  0  0  0  0  0  0  0  0  0  0  0
   21.9970   11.9530   20.4340 C   0  0  0  0  0  0  0  0  0  0  0  0
   25.2900   11.8640   18.4100 C   0  0  0  0  0  0  0  0  0  0  0  0
   25.4470   16.6320   18.8400 C   0  0  0  0  0  0  0  0  0  0  0  0
   24.6340   16.9480   19.9680 C   0  0  0  0  0  0  0  0  0  0  0  0
   26.4800   17.5300   18.4330 C   0  0  0  0  0  0  0  0  0  0  0  0
   24.8500   18.1570   20.6920 C   0  0  0  0  0  0  0  0  0  0  0  0
   26.6970   18.7410   19.1600 C   0  0  0  0  0  0  0  0  0  0  0  0
   25.3980   14.2660   18.7230 C   0  0  0  0  0  0  0  0  0  0  0  0
   25.8830   19.0540   20.2880 C   0  0  0  0  0  0  0  0  0  0  0  0
   26.1000   20.2720   21.0180 C   0  0  0  0  0  0  0  0  0  0  0  0
   23.3780   13.3680   24.5050 H   0  0  0  0  0  0  0  0  0  0  0  0
   23.0150   13.8530   26.1780 H   0  0  0  0  0  0  0  0  0  0  0  0
   22.1190   14.5850   24.8250 H   0  0  0  0  0  0  0  0  0  0  0  0
   24.8750   13.3900   16.9380 H   0  0  0  0  0  0  0  0  0  0  0  0
   19.6780   13.5380   25.7100 H   0  0  0  0  0  0  0  0  0  0  0  0
   20.7730   13.3910   27.1060 H   0  0  0  0  0  0  0  0  0  0  0  0
   24.9580   15.5300   17.1800 H   0  0  0  0  0  0  0  0  0  0  0  0
   20.0220   10.7760   26.0950 H   0  0  0  0  0  0  0  0  0  0  0  0
   17.7170   12.5510   26.9210 H   0  0  0  0  0  0  0  0  0  0  0  0
   17.6550   10.7910   26.6580 H   0  0  0  0  0  0  0  0  0  0  0  0
   18.0070   11.8830   25.2970 H   0  0  0  0  0  0  0  0  0  0  0  0
   19.5600   12.1190   28.7630 H   0  0  0  0  0  0  0  0  0  0  0  0
   20.9980   11.1850   28.2850 H   0  0  0  0  0  0  0  0  0  0  0  0
   19.4160   10.3790   28.4160 H   0  0  0  0  0  0  0  0  0  0  0  0
   20.0920   10.7760   21.8590 H   0  0  0  0  0  0  0  0  0  0  0  0
   21.0260    9.3440   22.3520 H   0  0  0  0  0  0  0  0  0  0  0  0
   23.4200    9.1100   21.7580 H   0  0  0  0  0  0  0  0  0  0  0  0
   25.2200    9.7300   20.1330 H   0  0  0  0  0  0  0  0  0  0  0  0
   22.9080   13.1820   18.8880 H   0  0  0  0  0  0  0  0  0  0  0  0
   21.1120   12.5660   20.5180 H   0  0  0  0  0  0  0  0  0  0  0  0
   26.2540   11.7760   18.9120 H   0  0  0  0  0  0  0  0  0  0  0  0
   25.2530   11.1690   17.5710 H   0  0  0  0  0  0  0  0  0  0  0  0
   23.8520   16.2690   20.2750 H   0  0  0  0  0  0  0  0  0  0  0  0
   27.0960   17.2940   17.5780 H   0  0  0  0  0  0  0  0  0  0  0  0
   24.2320   18.3940   21.5460 H   0  0  0  0  0  0  0  0  0  0  0  0
   27.4790   19.4200   18.8540 H   0  0  0  0  0  0  0  0  0  0  0  0
  1  2  1  0  0  0  0
  1  8  1  0  0  0  0
  1 11  1  0  0  0  0
  1 13  1  0  0  0  0
  2  3  1  0  0  0  0
  2  5  1  0  0  0  0
  4  8  2  0  0  0  0
  5  6  1  0  0  0  0
  5  9  2  0  0  0  0
  6  8  1  0  0  0  0
  6 19  1  0  0  0  0
  7 32  2  0  0  0  0
  9 10  1  0  0  0  0
 11 35  1  0  0  0  0
 11 36  1  0  0  0  0
 11 37  1  0  0  0  0
 12 26  1  0  0  0  0
 12 32  1  0  0  0  0
 12 38  1  0  0  0  0
 13 15  1  0  0  0  0
 13 39  1  0  0  0  0
 13 40  1  0  0  0  0
 14 27  1  0  0  0  0
 14 32  1  0  0  0  0
 14 41  1  0  0  0  0
 15 17  1  0  0  0  0
 15 18  1  0  0  0  0
 15 42  1  0  0  0  0
 16 34  3  0  0  0  0
 17 43  1  0  0  0  0
 17 44  1  0  0  0  0
 17 45  1  0  0  0  0
 18 46  1  0  0  0  0
 18 47  1  0  0  0  0
 18 48  1  0  0  0  0
 19 20  1  0  0  0  0
 19 49  1  0  0  0  0
 19 50  1  0  0  0  0
 20 21  1  0  0  0  0
 20 25  2  0  0  0  0
 21 22  2  0  0  0  0
 21 51  1  0  0  0  0
 22 23  1  0  0  0  0
 22 52  1  0  0  0  0
 23 24  2  0  0  0  0
 23 26  1  0  0  0  0
 24 25  1  0  0  0  0
 24 53  1  0  0  0  0
 25 54  1  0  0  0  0
 26 55  1  0  0  0  0
 26 56  1  0  0  0  0
 27 28  2  0  0  0  0
 27 29  1  0  0  0  0
 28 30  1  0  0  0  0
 28 57  1  0  0  0  0
 29 31  2  0  0  0  0
 29 58  1  0  0  0  0
 30 33  2  0  0  0  0
 30 59  1  0  0  0  0
 31 33  1  0  0  0  0
 31 60  1  0  0  0  0
 33 34  1  0  0  0  0
M  END
>  <PARENT_CMPD_ID>
3L5C

>  <STANDARD_TYPE>
IC50

>  <RELATION>
=

>  <STANDARD_VALUE>
7

>  <STANDARD_UNITS>
uM

>  <COMPOUND_KEY>
31

>  <PUBMED_ID>
20043696

>  <JOURNAL>
J.Med.Chem.

>  <YEAR>
2010

>  <VOLUME>
53

>  <FIRST_PAGE>
951

>  <Company>
Schering

>  <Resolution>
1.8

>  <idx>
164

>  <Model>
Train

>  <target>
5.154902

>  <des_pred_mlr>
6.0964799

>  <RF_Canvas>
5.8645954

>  <DNN_Canvas>
5.3204055

>  <pred_CoMFA>
4.9984002

>  <pred_COMSIA>
4.8522

>  <pred_abm5>
4.7651176

>  <pred_ff8>
5.1035061

>  <pred_gau6>
4.9694247

>  <CID>
BACE_164

>  <active>
0

>  <des_class_bayes>
0

>  <maacs_class_bayes>
0

>  <radial_class_bayes>
0

>  <dend_class_bayes>
0

>  <molprint_class_bayes>
0

>  <RF_canvas>
0

>  <DNN_canvas>
0

$$$$
3MSL_5329
  MOE2015           3D

 52 54  0  0  1  0  0  0  0  0999 V2000
   20.7100   11.6560   22.9270 C   0  0  0  0  0  0  0  0  0  0  0  0
   20.0220   12.8040   22.5380 C   0  0  0  0  0  0  0  0  0  0  0  0
   19.2110   12.7680   21.4030 C   0  0  0  0  0  0  0  0  0  0  0  0
   19.0730   11.6030   20.6440 C   0  0  0  0  0  0  0  0  0  0  0  0
   19.7410   10.4280   20.9910 C   0  0  0  0  0  0  0  0  0  0  0  0
   20.5610   10.4140   22.1140 C   0  0  0  0  0  0  0  0  0  0  0  0
   21.3190    9.4660   22.6960 N   0  0  0  0  0  0  0  0  0  0  0  0
   21.8710   10.0810   23.7560 C   0  0  0  0  0  0  0  0  0  0  0  0
   21.5430   11.3720   23.9370 N   0  0  0  0  0  0  0  0  0  0  0  0
   22.7080    9.3950   24.5740 N   0  0  0  0  0  0  0  0  0  0  0  0
   18.0180   11.6110   19.1930 Cl  0  0  0  0  0  0  0  0  0  0  0  0
   21.9730   12.3330   24.9990 C   0  0  3  0  0  0  0  0  0  0  0  0
   21.6670   11.8080   26.4020 C   0  0  0  0  0  0  0  0  0  0  0  0
   20.1790   11.6620   26.6380 C   0  0  0  0  0  0  0  0  0  0  0  0
   23.4620   12.6540   24.8630 C   0  0  0  0  0  0  0  0  0  0  0  0
   23.7830   13.1660   23.4750 C   0  0  0  0  0  0  0  0  0  0  0  0
   24.6010   12.4020   22.7500 N   0  0  0  0  0  0  0  0  0  0  0  0
   23.3100   14.2180   23.0710 O   0  0  0  0  0  0  0  0  0  0  0  0
   25.1030   12.6110   21.3950 C   0  0  0  0  0  0  0  0  0  0  0  0
   24.0910   11.9780   20.4430 C   0  0  0  0  0  0  0  0  0  0  0  0
   24.0770   10.4560   20.6040 C   0  0  0  0  0  0  0  0  0  0  0  0
   23.1070    9.7960   19.6240 C   0  0  0  0  0  0  0  0  0  0  0  0
   23.4070   10.1850   18.1760 C   0  0  0  0  0  0  0  0  0  0  0  0
   23.4970   11.7020   17.9970 C   0  0  0  0  0  0  0  0  0  0  0  0
   24.4570   12.3410   19.0020 C   0  0  0  0  0  0  0  0  0  0  0  0
   20.1160   13.7150   23.1110 H   0  0  0  0  0  0  0  0  0  0  0  0
   18.6790   13.6590   21.1050 H   0  0  0  0  0  0  0  0  0  0  0  0
   19.6220    9.5370   20.3920 H   0  0  0  0  0  0  0  0  0  0  0  0
   23.1230    9.8540   25.3720 H   0  0  0  0  0  0  0  0  0  0  0  0
   22.9160    8.4250   24.3850 H   0  0  0  0  0  0  0  0  0  0  0  0
   21.3990   13.2490   24.8590 H   0  0  0  0  0  0  0  0  0  0  0  0
   22.0730   12.5050   27.1350 H   0  0  0  0  0  0  0  0  0  0  0  0
   22.1410   10.8340   26.5250 H   0  0  0  0  0  0  0  0  0  0  0  0
   19.6950   12.6310   26.5180 H   0  0  0  0  0  0  0  0  0  0  0  0
   20.0060   11.2930   27.6490 H   0  0  0  0  0  0  0  0  0  0  0  0
   19.7640   10.9570   25.9180 H   0  0  0  0  0  0  0  0  0  0  0  0
   24.0400   11.7490   25.0520 H   0  0  0  0  0  0  0  0  0  0  0  0
   23.7300   13.4160   25.5950 H   0  0  0  0  0  0  0  0  0  0  0  0
   24.9190   11.5570   23.2030 H   0  0  0  0  0  0  0  0  0  0  0  0
   26.0760   12.1340   21.2780 H   0  0  0  0  0  0  0  0  0  0  0  0
   25.1940   13.6780   21.1900 H   0  0  0  0  0  0  0  0  0  0  0  0
   23.0980   12.3590   20.6800 H   0  0  0  0  0  0  0  0  0  0  0  0
   23.7730   10.2110   21.6220 H   0  0  0  0  0  0  0  0  0  0  0  0
   25.0810   10.0720   20.4220 H   0  0  0  0  0  0  0  0  0  0  0  0
   22.0920   10.1070   19.8690 H   0  0  0  0  0  0  0  0  0  0  0  0
   23.1890    8.7140   19.7220 H   0  0  0  0  0  0  0  0  0  0  0  0
   22.6120    9.8020   17.5370 H   0  0  0  0  0  0  0  0  0  0  0  0
   24.3570    9.7390   17.8810 H   0  0  0  0  0  0  0  0  0  0  0  0
   22.5050   12.1320   18.1350 H   0  0  0  0  0  0  0  0  0  0  0  0
   23.8490   11.9170   16.9880 H   0  0  0  0  0  0  0  0  0  0  0  0
   25.4690   11.9920   18.7960 H   0  0  0  0  0  0  0  0  0  0  0  0
   24.4170   13.4240   18.8890 H   0  0  0  0  0  0  0  0  0  0  0  0
  1  2  1  0  0  0  0
  1  6  2  0  0  0  0
  1  9  1  0  0  0  0
  2  3  2  0  0  0  0
  2 26  1  0  0  0  0
  3  4  1  0  0  0  0
  3 27  1  0  0  0  0
  4  5  2  0  0  0  0
  4 11  1  0  0  0  0
  5  6  1  0  0  0  0
  5 28  1  0  0  0  0
  6  7  1  0  0  0  0
  7  8  2  0  0  0  0
  8  9  1  0  0  0  0
  8 10  1  0  0  0  0
  9 12  1  0  0  0  0
 10 29  1  0  0  0  0
 10 30  1  0  0  0  0
 12 13  1  0  0  0  0
 12 15  1  0  0  0  0
 12 31  1  0  0  0  0
 13 14  1  0  0  0  0
 13 32  1  0  0  0  0
 13 33  1  0  0  0  0
 14 34  1  0  0  0  0
 14 35  1  0  0  0  0
 14 36  1  0  0  0  0
 15 16  1  0  0  0  0
 15 37  1  0  0  0  0
 15 38  1  0  0  0  0
 16 17  1  0  0  0  0
 16 18  2  0  0  0  0
 17 19  1  0  0  0  0
 17 39  1  0  0  0  0
 19 20  1  0  0  0  0
 19 40  1  0  0  0  0
 19 41  1  0  0  0  0
 20 21  1  0  0  0  0
 20 25  1  0  0  0  0
 20 42  1  0  0  0  0
 21 22  1  0  0  0  0
 21 43  1  0  0  0  0
 21 44  1  0  0  0  0
 22 23  1  0  0  0  0
 22 45  1  0  0  0  0
 22 46  1  0  0  0  0
 23 24  1  0  0  0  0
 23 47  1  0  0  0  0
 23 48  1  0  0  0  0
 24 25  1  0  0  0  0
 24 49  1  0  0  0  0
 24 50  1  0  0  0  0
 25 51  1  0  0  0  0
 25 52  1  0  0  0  0
M  END
>  <PARENT_CMPD_ID>
3MSL

>  <STANDARD_TYPE>
IC50

>  <RELATION>
=

>  <STANDARD_VALUE>
7

>  <STANDARD_UNITS>
uM

>  <COMPOUND_KEY>
14i

>  <PUBMED_ID>
20656487

>  <JOURNAL>
Bioorg.Med.Chem.Lett.

>  <YEAR>
2010

>  <VOLUME>
20

>  <FIRST_PAGE>
5329

>  <Company>
Evotec

>  <Resolution>
2.4000001

>  <idx>
165

>  <Model>
Train

>  <target>
5.154902

>  <des_pred_mlr>
5.69596

>  <RF_Canvas>
5.1001081

>  <DNN_Canvas>
4.9631281

>  <pred_CoMFA>
4.5514002

>  <pred_COMSIA>
4.4510999

>  <pred_abm5>
4.7586231

>  <pred_ff8>
5.2361469

>  <pred_gau6>
5.1829791

>  <CID>
BACE_165

>  <active>
0

>  <des_class_bayes>
0

>  <maacs_class_bayes>
0

>  <radial_class_bayes>
0

>  <dend_class_bayes>
0

>  <molprint_class_bayes>
0

>  <RF_canvas>
0

>  <DNN_canvas>
0

$$$$
4B77_4181
  MOE2015           3D

 47 50  0  0  1  0  0  0  0  0999 V2000
   16.2870    8.4260   19.3810 C   0  0  0  0  0  0  0  0  0  0  0  0
   16.8750    9.7390   19.4100 O   0  0  0  0  0  0  0  0  0  0  0  0
   18.1330    9.8970   19.9250 C   0  0  0  0  0  0  0  0  0  0  0  0
   18.5340   11.1850   20.2510 C   0  0  0  0  0  0  0  0  0  0  0  0
   19.7910   11.4000   20.8130 C   0  0  0  0  0  0  0  0  0  0  0  0
   19.0040    8.8000   20.1200 C   0  0  0  0  0  0  0  0  0  0  0  0
   20.2790    9.0240   20.6460 C   0  0  0  0  0  0  0  0  0  0  0  0
   20.6640   10.3170   21.0220 C   0  0  0  0  0  0  0  0  0  0  0  0
   22.0390   10.5440   21.6430 C   0  0  3  0  0  0  0  0  0  0  0  0
   22.0030   11.8110   22.5770 C   0  0  0  0  0  0  0  0  0  0  0  0
   22.5620    9.7700   23.7950 C   0  0  0  0  0  0  0  0  0  0  0  0
   22.3460    9.4200   22.5620 N   0  3  0  0  0  0  0  0  0  0  0  0
   22.8780    8.9020   24.8270 N   0  0  0  0  0  0  0  0  0  0  0  0
   23.1100   10.7790   20.6070 C   0  0  0  0  0  0  0  0  0  0  0  0
   24.4510   10.6890   20.9780 C   0  0  0  0  0  0  0  0  0  0  0  0
   22.7940   11.1510   19.2970 C   0  0  0  0  0  0  0  0  0  0  0  0
   23.8210   11.3790   18.3670 C   0  0  0  0  0  0  0  0  0  0  0  0
   25.1580   11.2860   18.7320 C   0  0  0  0  0  0  0  0  0  0  0  0
   25.4650   10.9040   20.0460 C   0  0  0  0  0  0  0  0  0  0  0  0
   26.8900   10.8170   20.5320 C   0  0  0  0  0  0  0  0  0  0  0  0
   22.4420   11.2840   23.9610 C   0  0  0  0  0  0  0  0  0  0  0  0
   27.3600    9.7540   21.3300 C   0  0  0  0  0  0  0  0  0  0  0  0
   28.6400    9.8030   21.7420 N   0  0  0  0  0  0  0  0  0  0  0  0
   29.4500   10.7950   21.4250 C   0  0  0  0  0  0  0  0  0  0  0  0
   29.0480   11.8220   20.6730 N   0  0  0  0  0  0  0  0  0  0  0  0
   27.7900   11.8600   20.2270 C   0  0  0  0  0  0  0  0  0  0  0  0
   15.2910    8.4840   18.9420 H   0  0  0  0  0  0  0  0  0  0  0  0
   16.2140    8.0380   20.3970 H   0  0  0  0  0  0  0  0  0  0  0  0
   16.9100    7.7620   18.7820 H   0  0  0  0  0  0  0  0  0  0  0  0
   17.8730   12.0190   20.0690 H   0  0  0  0  0  0  0  0  0  0  0  0
   20.0950   12.3990   21.0880 H   0  0  0  0  0  0  0  0  0  0  0  0
   18.6870    7.8000   19.8650 H   0  0  0  0  0  0  0  0  0  0  0  0
   20.9680    8.2000   20.7630 H   0  0  0  0  0  0  0  0  0  0  0  0
   20.9960   12.2260   22.6240 H   0  0  0  0  0  0  0  0  0  0  0  0
   22.6940   12.5740   22.2180 H   0  0  0  0  0  0  0  0  0  0  0  0
   22.3840    8.4590   22.2540 H   0  0  0  0  0  0  0  0  0  0  0  0
   22.9560    7.9110   24.6470 H   0  0  0  0  0  0  0  0  0  0  0  0
   23.0300    9.2600   25.7590 H   0  0  0  0  0  0  0  0  0  0  0  0
   24.7070   10.4500   22.0000 H   0  0  0  0  0  0  0  0  0  0  0  0
   21.7610   11.2630   19.0010 H   0  0  0  0  0  0  0  0  0  0  0  0
   23.5660   11.6320   17.3480 H   0  0  0  0  0  0  0  0  0  0  0  0
   25.9420   11.5030   18.0210 H   0  0  0  0  0  0  0  0  0  0  0  0
   21.6950   11.5270   24.7170 H   0  0  0  0  0  0  0  0  0  0  0  0
   23.4020   11.7140   24.2470 H   0  0  0  0  0  0  0  0  0  0  0  0
   26.7160    8.9300   21.6010 H   0  0  0  0  0  0  0  0  0  0  0  0
   30.4680   10.7760   21.7840 H   0  0  0  0  0  0  0  0  0  0  0  0
   27.4590   12.6960   19.6280 H   0  0  0  0  0  0  0  0  0  0  0  0
  1  2  1  0  0  0  0
  1 27  1  0  0  0  0
  1 28  1  0  0  0  0
  1 29  1  0  0  0  0
  2  3  1  0  0  0  0
  3  4  2  0  0  0  0
  3  6  1  0  0  0  0
  4  5  1  0  0  0  0
  4 30  1  0  0  0  0
  5  8  2  0  0  0  0
  5 31  1  0  0  0  0
  6  7  2  0  0  0  0
  6 32  1  0  0  0  0
  7  8  1  0  0  0  0
  7 33  1  0  0  0  0
  8  9  1  0  0  0  0
  9 10  1  0  0  0  0
  9 12  1  0  0  0  0
  9 14  1  0  0  0  0
 10 21  1  0  0  0  0
 10 34  1  0  0  0  0
 10 35  1  0  0  0  0
 11 12  2  0  0  0  0
 11 13  1  0  0  0  0
 11 21  1  0  0  0  0
 12 36  1  0  0  0  0
 13 37  1  0  0  0  0
 13 38  1  0  0  0  0
 14 15  1  0  0  0  0
 14 16  2  0  0  0  0
 15 19  2  0  0  0  0
 15 39  1  0  0  0  0
 16 17  1  0  0  0  0
 16 40  1  0  0  0  0
 17 18  2  0  0  0  0
 17 41  1  0  0  0  0
 18 19  1  0  0  0  0
 18 42  1  0  0  0  0
 19 20  1  0  0  0  0
 20 22  1  0  0  0  0
 20 26  2  0  0  0  0
 21 43  1  0  0  0  0
 21 44  1  0  0  0  0
 22 23  2  0  0  0  0
 22 45  1  0  0  0  0
 23 24  1  0  0  0  0
 24 25  2  0  0  0  0
 24 46  1  0  0  0  0
 25 26  1  0  0  0  0
 26 47  1  0  0  0  0
M  CHG  1  12   1
M  END
>  <PARENT_CMPD_ID>
4B77

>  <STANDARD_TYPE>
IC50

>  <RELATION>
=

>  <STANDARD_VALUE>
7.9000001

>  <STANDARD_UNITS>
uM

>  <COMPOUND_KEY>
83

>  <PUBMED_ID>
23126626

>  <JOURNAL>
J.Med.Chem.

>  <YEAR>
2013

>  <VOLUME>
56

>  <FIRST_PAGE>
4181

>  <Company>
AstraZeneca

>  <Resolution>
1.8

>  <idx>
166

>  <Model>
Train

>  <target>
5.1023731

>  <des_pred_mlr>
6.2936201

>  <RF_Canvas>
5.4064093

>  <DNN_Canvas>
5.5085454

>  <pred_CoMFA>
5.4151001

>  <pred_COMSIA>
6.7083001

>  <pred_abm5>
5.9962673

>  <pred_ff8>
5.2414093

>  <pred_gau6>
6.1931868

>  <CID>
BACE_166

>  <active>
0

>  <des_class_bayes>
0

>  <maacs_class_bayes>
0

>  <radial_class_bayes>
0

>  <dend_class_bayes>
0

>  <molprint_class_bayes>
0

>  <RF_canvas>
0

>  <DNN_canvas>
0

$$$$
3S2O_5329
  MOE2015           3D

 57 61  0  0  1  0  0  0  0  0999 V2000
   21.0770   11.7080   23.0830 C   0  0  0  0  0  0  0  0  0  0  0  0
   20.5040   12.9200   22.6650 C   0  0  0  0  0  0  0  0  0  0  0  0
   19.7030   12.9660   21.5200 C   0  0  0  0  0  0  0  0  0  0  0  0
   19.4920   11.7860   20.8090 C   0  0  0  0  0  0  0  0  0  0  0  0
   20.0420   10.5300   21.1780 C   0  0  0  0  0  0  0  0  0  0  0  0
   20.8400   10.4550   22.3070 C   0  0  0  0  0  0  0  0  0  0  0  0
   21.4980    9.4540   22.9170 N   0  0  0  0  0  0  0  0  0  0  0  0
   22.0830   10.0650   23.9740 C   0  0  0  0  0  0  0  0  0  0  0  0
   21.8500   11.3950   24.1280 N   0  0  0  0  0  0  0  0  0  0  0  0
   22.8350    9.3260   24.8080 N   0  0  0  0  0  0  0  0  0  0  0  0
   18.4980   11.8530   19.3460 Cl  0  0  0  0  0  0  0  0  0  0  0  0
   22.3380   12.4180   25.1170 C   0  0  3  0  0  0  0  0  0  0  0  0
   22.0820   12.0560   26.5700 C   0  0  0  0  0  0  0  0  0  0  0  0
   20.6020   11.7500   26.7650 C   0  0  0  0  0  0  0  0  0  0  0  0
   23.8150   12.6840   24.8470 C   0  0  0  0  0  0  0  0  0  0  0  0
   24.0370   12.9550   23.3700 C   0  0  0  0  0  0  0  0  0  0  0  0
   24.7440   12.1110   22.5840 N   0  0  0  0  0  0  0  0  0  0  0  0
   23.5080   13.9580   22.9080 O   0  0  0  0  0  0  0  0  0  0  0  0
   24.9360   12.4430   21.1600 C   0  0  0  0  0  0  0  0  0  0  0  0
   26.1030   11.6490   20.6210 C   0  0  0  0  0  0  0  0  0  0  0  0
   26.4080   12.1780   19.2090 C   0  0  0  0  0  0  0  0  0  0  0  0
   25.2500   11.9520   18.2400 C   0  0  0  0  0  0  0  0  0  0  0  0
   25.0260   10.4290   18.1500 C   0  0  0  0  0  0  0  0  0  0  0  0
   24.6430    9.8910   19.5440 C   0  0  0  0  0  0  0  0  0  0  0  0
   25.7450   10.1680   20.5500 C   0  0  0  0  0  0  0  0  0  0  0  0
   23.7290   12.1280   20.2770 C   0  0  0  0  0  0  0  0  0  0  0  0
   23.4510   10.6330   20.1410 C   0  0  0  0  0  0  0  0  0  0  0  0
   24.0170   12.6410   18.8480 C   0  0  0  0  0  0  0  0  0  0  0  0
   20.6830   13.8220   23.2310 H   0  0  0  0  0  0  0  0  0  0  0  0
   19.2580   13.8950   21.1940 H   0  0  0  0  0  0  0  0  0  0  0  0
   19.8410    9.6480   20.5880 H   0  0  0  0  0  0  0  0  0  0  0  0
   23.2700    9.7570   25.6120 H   0  0  0  0  0  0  0  0  0  0  0  0
   22.9650    8.3400   24.6310 H   0  0  0  0  0  0  0  0  0  0  0  0
   21.7560   13.3280   24.9680 H   0  0  0  0  0  0  0  0  0  0  0  0
   22.3670   12.8920   27.2080 H   0  0  0  0  0  0  0  0  0  0  0  0
   22.6720   11.1790   26.8350 H   0  0  0  0  0  0  0  0  0  0  0  0
   20.0120   12.6270   26.5000 H   0  0  0  0  0  0  0  0  0  0  0  0
   20.4190   11.4900   27.8080 H   0  0  0  0  0  0  0  0  0  0  0  0
   20.3170   10.9140   26.1270 H   0  0  0  0  0  0  0  0  0  0  0  0
   24.3980   11.8130   25.1450 H   0  0  0  0  0  0  0  0  0  0  0  0
   24.1360   13.5510   25.4240 H   0  0  0  0  0  0  0  0  0  0  0  0
   25.1360   11.2630   22.9680 H   0  0  0  0  0  0  0  0  0  0  0  0
   25.1020   13.5200   21.1250 H   0  0  0  0  0  0  0  0  0  0  0  0
   26.9700   11.7580   21.2720 H   0  0  0  0  0  0  0  0  0  0  0  0
   27.2900   11.6650   18.8260 H   0  0  0  0  0  0  0  0  0  0  0  0
   26.6080   13.2480   19.2720 H   0  0  0  0  0  0  0  0  0  0  0  0
   25.4430   12.3530   17.2450 H   0  0  0  0  0  0  0  0  0  0  0  0
   25.9420    9.9450   17.8110 H   0  0  0  0  0  0  0  0  0  0  0  0
   24.2220   10.2200   17.4450 H   0  0  0  0  0  0  0  0  0  0  0  0
   24.4420    8.8310   19.3870 H   0  0  0  0  0  0  0  0  0  0  0  0
   25.4120    9.8400   21.5350 H   0  0  0  0  0  0  0  0  0  0  0  0
   26.6330    9.6060   20.2610 H   0  0  0  0  0  0  0  0  0  0  0  0
   22.8700   12.6050   20.7490 H   0  0  0  0  0  0  0  0  0  0  0  0
   23.2370   10.2220   21.1280 H   0  0  0  0  0  0  0  0  0  0  0  0
   22.5860   10.4920   19.4930 H   0  0  0  0  0  0  0  0  0  0  0  0
   23.1510   12.4380   18.2180 H   0  0  0  0  0  0  0  0  0  0  0  0
   24.1950   13.7160   18.8870 H   0  0  0  0  0  0  0  0  0  0  0  0
  1  2  1  0  0  0  0
  1  6  2  0  0  0  0
  1  9  1  0  0  0  0
  2  3  2  0  0  0  0
  2 29  1  0  0  0  0
  3  4  1  0  0  0  0
  3 30  1  0  0  0  0
  4  5  2  0  0  0  0
  4 11  1  0  0  0  0
  5  6  1  0  0  0  0
  5 31  1  0  0  0  0
  6  7  1  0  0  0  0
  7  8  2  0  0  0  0
  8  9  1  0  0  0  0
  8 10  1  0  0  0  0
  9 12  1  0  0  0  0
 10 32  1  0  0  0  0
 10 33  1  0  0  0  0
 12 13  1  0  0  0  0
 12 15  1  0  0  0  0
 12 34  1  0  0  0  0
 13 14  1  0  0  0  0
 13 35  1  0  0  0  0
 13 36  1  0  0  0  0
 14 37  1  0  0  0  0
 14 38  1  0  0  0  0
 14 39  1  0  0  0  0
 15 16  1  0  0  0  0
 15 40  1  0  0  0  0
 15 41  1  0  0  0  0
 16 17  1  0  0  0  0
 16 18  2  0  0  0  0
 17 19  1  0  0  0  0
 17 42  1  0  0  0  0
 19 20  1  0  0  0  0
 19 26  1  0  0  0  0
 19 43  1  0  0  0  0
 20 21  1  0  0  0  0
 20 25  1  0  0  0  0
 20 44  1  0  0  0  0
 21 22  1  0  0  0  0
 21 45  1  0  0  0  0
 21 46  1  0  0  0  0
 22 23  1  0  0  0  0
 22 28  1  0  0  0  0
 22 47  1  0  0  0  0
 23 24  1  0  0  0  0
 23 48  1  0  0  0  0
 23 49  1  0  0  0  0
 24 25  1  0  0  0  0
 24 27  1  0  0  0  0
 24 50  1  0  0  0  0
 25 51  1  0  0  0  0
 25 52  1  0  0  0  0
 26 27  1  0  0  0  0
 26 28  1  0  0  0  0
 26 53  1  0  0  0  0
 27 54  1  0  0  0  0
 27 55  1  0  0  0  0
 28 56  1  0  0  0  0
 28 57  1  0  0  0  0
M  END
>  <PARENT_CMPD_ID>
3S2O

>  <STANDARD_TYPE>
IC50

>  <RELATION>
=

>  <STANDARD_VALUE>
8.8999996

>  <STANDARD_UNITS>
uM

>  <COMPOUND_KEY>
14m

>  <PUBMED_ID>
20656487

>  <JOURNAL>
Bioorg.Med.Chem.Lett.

>  <YEAR>
2010

>  <VOLUME>
20

>  <FIRST_PAGE>
5329

>  <Company>
Evotec

>  <Resolution>
2.5999999

>  <idx>
167

>  <Model>
Train

>  <target>
5.0506101

>  <des_pred_mlr>
5.8043599

>  <RF_Canvas>
5.4478106

>  <DNN_Canvas>
5.2630758

>  <pred_CoMFA>
4.6444998

>  <pred_COMSIA>
4.6630001

>  <pred_abm5>
4.8929543

>  <pred_ff8>
4.7090669

>  <pred_gau6>
5.0958967

>  <CID>
BACE_167

>  <active>
0

>  <des_class_bayes>
0

>  <maacs_class_bayes>
0

>  <radial_class_bayes>
0

>  <dend_class_bayes>
0

>  <molprint_class_bayes>
0

>  <RF_canvas>
0

>  <DNN_canvas>
0

$$$$
2OHT_1124
  MOE2015           3D

 42 45  0  0  0  0  0  0  0  0999 V2000
   22.8200    9.1980   24.7450 N   0  0  0  0  0  0  0  0  0  0  0  0
   22.1390   10.4130   24.6950 C   0  0  0  0  0  0  0  0  0  0  0  0
   22.1880   11.2400   25.7390 N   0  0  0  0  0  0  0  0  0  0  0  0
   21.5640   12.4070   25.7380 C   0  0  0  0  0  0  0  0  0  0  0  0
   20.8270   12.8250   24.6450 C   0  0  0  0  0  0  0  0  0  0  0  0
   20.7510   11.9940   23.5340 C   0  0  0  0  0  0  0  0  0  0  0  0
   21.4100   10.7620   23.5440 C   0  0  0  0  0  0  0  0  0  0  0  0
   21.3570    9.8890   22.4320 N   0  0  0  0  0  0  0  0  0  0  0  0
   20.6970   10.2880   21.1730 C   0  0  0  0  0  0  0  0  0  0  0  0
   21.6300   11.1750   20.3630 C   0  0  0  0  0  0  0  0  0  0  0  0
   21.1000   12.3080   19.7410 C   0  0  0  0  0  0  0  0  0  0  0  0
   21.9310   13.1350   19.0060 C   0  0  0  0  0  0  0  0  0  0  0  0
   23.2910   12.8440   18.8880 C   0  0  0  0  0  0  0  0  0  0  0  0
   23.8360   11.7010   19.4960 C   0  0  0  0  0  0  0  0  0  0  0  0
   22.9950   10.8720   20.2540 C   0  0  0  0  0  0  0  0  0  0  0  0
   25.2890   11.4330   19.3570 C   0  0  0  0  0  0  0  0  0  0  0  0
   25.9690   11.8000   18.1730 C   0  0  0  0  0  0  0  0  0  0  0  0
   27.3210   11.5740   18.0470 C   0  0  0  0  0  0  0  0  0  0  0  0
   28.0480   10.9790   19.1020 C   0  0  0  0  0  0  0  0  0  0  0  0
   29.4600   10.5980   19.3050 C   0  0  0  0  0  0  0  0  0  0  0  0
   29.5760   10.0660   20.5460 C   0  0  0  0  0  0  0  0  0  0  0  0
   28.3510   10.0620   21.1640 N   0  0  0  0  0  0  0  0  0  0  0  0
   27.3880   10.6220   20.3160 C   0  0  0  0  0  0  0  0  0  0  0  0
   26.0000   10.8630   20.4280 C   0  0  0  0  0  0  0  0  0  0  0  0
   22.7900    8.5690   23.9550 H   0  0  0  0  0  0  0  0  0  0  0  0
   23.3440    8.9460   25.5710 H   0  0  0  0  0  0  0  0  0  0  0  0
   21.6320   13.0450   26.6070 H   0  0  0  0  0  0  0  0  0  0  0  0
   20.3200   13.7790   24.6550 H   0  0  0  0  0  0  0  0  0  0  0  0
   20.1850   12.2990   22.6660 H   0  0  0  0  0  0  0  0  0  0  0  0
   21.7790    8.9740   22.5010 H   0  0  0  0  0  0  0  0  0  0  0  0
   19.7830   10.8370   21.4010 H   0  0  0  0  0  0  0  0  0  0  0  0
   20.4510    9.3970   20.5950 H   0  0  0  0  0  0  0  0  0  0  0  0
   20.0490   12.5370   19.8330 H   0  0  0  0  0  0  0  0  0  0  0  0
   21.5250   14.0100   18.5210 H   0  0  0  0  0  0  0  0  0  0  0  0
   23.9310   13.5050   18.3230 H   0  0  0  0  0  0  0  0  0  0  0  0
   23.3980   10.0030   20.7520 H   0  0  0  0  0  0  0  0  0  0  0  0
   25.4240   12.2610   17.3620 H   0  0  0  0  0  0  0  0  0  0  0  0
   27.8290   11.8530   17.1360 H   0  0  0  0  0  0  0  0  0  0  0  0
   30.2600   10.7220   18.5900 H   0  0  0  0  0  0  0  0  0  0  0  0
   30.4940    9.7010   20.9820 H   0  0  0  0  0  0  0  0  0  0  0  0
   28.1710    9.7080   22.0930 H   0  0  0  0  0  0  0  0  0  0  0  0
   25.4830   10.6080   21.3410 H   0  0  0  0  0  0  0  0  0  0  0  0
  1  2  1  0  0  0  0
  1 25  1  0  0  0  0
  1 26  1  0  0  0  0
  2  3  1  0  0  0  0
  2  7  2  0  0  0  0
  3  4  2  0  0  0  0
  4  5  1  0  0  0  0
  4 27  1  0  0  0  0
  5  6  2  0  0  0  0
  5 28  1  0  0  0  0
  6  7  1  0  0  0  0
  6 29  1  0  0  0  0
  7  8  1  0  0  0  0
  8  9  1  0  0  0  0
  8 30  1  0  0  0  0
  9 10  1  0  0  0  0
  9 31  1  0  0  0  0
  9 32  1  0  0  0  0
 10 11  1  0  0  0  0
 10 15  2  0  0  0  0
 11 12  2  0  0  0  0
 11 33  1  0  0  0  0
 12 13  1  0  0  0  0
 12 34  1  0  0  0  0
 13 14  2  0  0  0  0
 13 35  1  0  0  0  0
 14 15  1  0  0  0  0
 14 16  1  0  0  0  0
 15 36  1  0  0  0  0
 16 17  1  0  0  0  0
 16 24  2  0  0  0  0
 17 18  2  0  0  0  0
 17 37  1  0  0  0  0
 18 19  1  0  0  0  0
 18 38  1  0  0  0  0
 19 20  1  0  0  0  0
 19 23  2  0  0  0  0
 20 21  2  0  0  0  0
 20 39  1  0  0  0  0
 21 22  1  0  0  0  0
 21 40  1  0  0  0  0
 22 23  1  0  0  0  0
 22 41  1  0  0  0  0
 23 24  1  0  0  0  0
 24 42  1  0  0  0  0
M  END
>  <PARENT_CMPD_ID>
2OHT

>  <STANDARD_TYPE>
IC50

>  <RELATION>
=

>  <STANDARD_VALUE>
9.1000004

>  <STANDARD_UNITS>
uM

>  <COMPOUND_KEY>
7

>  <PUBMED_ID>
17315857

>  <JOURNAL>
J.Med.Chem.

>  <YEAR>
2007

>  <VOLUME>
50

>  <FIRST_PAGE>
1124

>  <Company>
Astex

>  <Resolution>
2.3

>  <idx>
168

>  <Model>
Train

>  <target>
5.0409584

>  <des_pred_mlr>
5.6311798

>  <RF_Canvas>
4.8644638

>  <DNN_Canvas>
4.8377814

>  <pred_CoMFA>
4.1954999

>  <pred_COMSIA>
4.6078

>  <pred_abm5>
4.1242127

>  <pred_ff8>
4.6345534

>  <pred_gau6>
4.212883

>  <CID>
BACE_168

>  <active>
0

>  <des_class_bayes>
0

>  <maacs_class_bayes>
0

>  <radial_class_bayes>
0

>  <dend_class_bayes>
0

>  <molprint_class_bayes>
0

>  <RF_canvas>
0

>  <DNN_canvas>
0

$$$$
4LC7_5802
  MOE2015           3D

 41 44  0  0  1  0  0  0  0  0999 V2000
   22.1310   10.6210   21.9570 C   0  0  3  0  0  0  0  0  0  0  0  0
   22.3860   11.7690   22.9740 C   0  0  3  0  0  0  0  0  0  0  0  0
   21.1630   12.6840   23.1980 C   0  0  0  0  0  0  0  0  0  0  0  0
   19.8420   11.9260   23.4410 C   0  0  0  0  0  0  0  0  0  0  0  0
   19.6850   10.5550   22.7360 C   0  0  0  0  0  0  0  0  0  0  0  0
   20.6590   10.3740   21.5400 C   0  0  0  0  0  0  0  0  0  0  0  0
   22.4860    9.4310   22.6980 N   0  0  0  0  0  0  0  0  0  0  0  0
   22.7450    9.7580   23.9610 C   0  0  0  0  0  0  0  0  0  0  0  0
   22.5910   11.0780   24.2300 O   0  0  0  0  0  0  0  0  0  0  0  0
   23.1150   10.8310   20.7940 C   0  0  0  0  0  0  0  0  0  0  0  0
   22.6850   11.1230   19.4750 C   0  0  0  0  0  0  0  0  0  0  0  0
   23.6310   11.3320   18.4420 C   0  0  0  0  0  0  0  0  0  0  0  0
   25.0210   11.2640   18.7020 C   0  0  0  0  0  0  0  0  0  0  0  0
   25.4650   10.9730   20.0180 C   0  0  0  0  0  0  0  0  0  0  0  0
   24.5080   10.7630   21.0470 C   0  0  0  0  0  0  0  0  0  0  0  0
   26.8300   10.9380   20.3760 C   0  0  0  0  0  0  0  0  0  0  0  0
   22.8630    8.9000   24.9660 N   0  0  0  0  0  0  0  0  0  0  0  0
   27.7500   11.8710   19.8300 C   0  0  0  0  0  0  0  0  0  0  0  0
   29.0530   11.9050   20.1970 N   0  0  0  0  0  0  0  0  0  0  0  0
   29.5130   11.0580   21.1410 C   0  0  0  0  0  0  0  0  0  0  0  0
   28.6650   10.1140   21.7660 C   0  0  0  0  0  0  0  0  0  0  0  0
   27.3040   10.0560   21.3830 C   0  0  0  0  0  0  0  0  0  0  0  0
   29.2940    9.0740   22.9720 Cl  0  0  0  0  0  0  0  0  0  0  0  0
   23.2030   12.3940   22.6140 H   0  0  0  0  0  0  0  0  0  0  0  0
   21.0400   13.3120   22.3150 H   0  0  0  0  0  0  0  0  0  0  0  0
   21.3610   13.3130   24.0660 H   0  0  0  0  0  0  0  0  0  0  0  0
   19.0270   12.5660   23.1030 H   0  0  0  0  0  0  0  0  0  0  0  0
   19.7510   11.7580   24.5140 H   0  0  0  0  0  0  0  0  0  0  0  0
   18.6630   10.4690   22.3680 H   0  0  0  0  0  0  0  0  0  0  0  0
   19.8770    9.7660   23.4630 H   0  0  0  0  0  0  0  0  0  0  0  0
   20.5660    9.3570   21.1590 H   0  0  0  0  0  0  0  0  0  0  0  0
   20.3910   11.0820   20.7560 H   0  0  0  0  0  0  0  0  0  0  0  0
   21.6290   11.1860   19.2570 H   0  0  0  0  0  0  0  0  0  0  0  0
   23.2870   11.5460   17.4410 H   0  0  0  0  0  0  0  0  0  0  0  0
   25.7340   11.4310   17.9090 H   0  0  0  0  0  0  0  0  0  0  0  0
   24.8510   10.5460   22.0480 H   0  0  0  0  0  0  0  0  0  0  0  0
   22.7540    7.9100   24.8000 H   0  0  0  0  0  0  0  0  0  0  0  0
   23.0620    9.2370   25.8970 H   0  0  0  0  0  0  0  0  0  0  0  0
   27.3980   12.5800   19.0950 H   0  0  0  0  0  0  0  0  0  0  0  0
   30.5540   11.1020   21.4260 H   0  0  0  0  0  0  0  0  0  0  0  0
   26.6340    9.3500   21.8510 H   0  0  0  0  0  0  0  0  0  0  0  0
  1  2  1  0  0  0  0
  1  6  1  0  0  0  0
  1  7  1  0  0  0  0
  1 10  1  0  0  0  0
  2  3  1  0  0  0  0
  2  9  1  0  0  0  0
  2 24  1  0  0  0  0
  3  4  1  0  0  0  0
  3 25  1  0  0  0  0
  3 26  1  0  0  0  0
  4  5  1  0  0  0  0
  4 27  1  0  0  0  0
  4 28  1  0  0  0  0
  5  6  1  0  0  0  0
  5 29  1  0  0  0  0
  5 30  1  0  0  0  0
  6 31  1  0  0  0  0
  6 32  1  0  0  0  0
  7  8  2  0  0  0  0
  8  9  1  0  0  0  0
  8 17  1  0  0  0  0
 10 11  1  0  0  0  0
 10 15  2  0  0  0  0
 11 12  2  0  0  0  0
 11 33  1  0  0  0  0
 12 13  1  0  0  0  0
 12 34  1  0  0  0  0
 13 14  2  0  0  0  0
 13 35  1  0  0  0  0
 14 15  1  0  0  0  0
 14 16  1  0  0  0  0
 15 36  1  0  0  0  0
 16 18  1  0  0  0  0
 16 22  2  0  0  0  0
 17 37  1  0  0  0  0
 17 38  1  0  0  0  0
 18 19  2  0  0  0  0
 18 39  1  0  0  0  0
 19 20  1  0  0  0  0
 20 21  2  0  0  0  0
 20 40  1  0  0  0  0
 21 22  1  0  0  0  0
 21 23  1  0  0  0  0
 22 41  1  0  0  0  0
M  END
>  <PARENT_CMPD_ID>
4LC7

>  <STANDARD_TYPE>
IC50

>  <RELATION>
=

>  <STANDARD_VALUE>
11.8

>  <STANDARD_UNITS>
uM

>  <COMPOUND_KEY>
40

>  <JOURNAL>
Tetrahedron Lett.

>  <YEAR>
2013

>  <VOLUME>
54

>  <FIRST_PAGE>
5802

>  <Company>
Genentech

>  <Resolution>
1.7

>  <idx>
169

>  <Model>
Train

>  <target>
4.9281178

>  <des_pred_mlr>
5.8752298

>  <RF_Canvas>
4.7186136

>  <DNN_Canvas>
5.1152177

>  <pred_CoMFA>
5.6037998

>  <pred_COMSIA>
5.3242998

>  <pred_abm5>
5.3030853

>  <pred_ff8>
5.3961892

>  <pred_gau6>
5.5139389

>  <CID>
BACE_169

>  <active>
0

>  <des_class_bayes>
0

>  <maacs_class_bayes>
0

>  <radial_class_bayes>
0

>  <dend_class_bayes>
0

>  <molprint_class_bayes>
0

>  <RF_canvas>
0

>  <DNN_canvas>
0

$$$$
3UDN_9069
  MOE2015           3D

 44 47  0  0  1  0  0  0  0  0999 V2000
   13.2520   11.1130   22.8990 C   0  0  0  0  0  0  0  0  0  0  0  0
   24.4180   10.3490   19.5250 C   0  0  0  0  0  0  0  0  0  0  0  0
   24.9670    9.6060   18.9660 H   0  0  0  0  0  0  0  0  0  0  0  0
   24.3540   11.6510   19.0530 C   0  0  0  0  0  0  0  0  0  0  0  0
   24.8330   11.9040   18.1190 H   0  0  0  0  0  0  0  0  0  0  0  0
   15.0630    9.7320   23.7720 C   0  0  0  0  0  0  0  0  0  0  0  0
   14.5950    8.8340   23.3960 H   0  0  0  0  0  0  0  0  0  0  0  0
   15.0460   12.1160   24.0770 C   0  0  0  0  0  0  0  0  0  0  0  0
   14.5600   13.0690   23.9300 H   0  0  0  0  0  0  0  0  0  0  0  0
   23.7900    9.9900   20.7000 C   0  0  0  0  0  0  0  0  0  0  0  0
   23.8200    8.9740   21.0650 H   0  0  0  0  0  0  0  0  0  0  0  0
   16.2710    9.6690   24.4530 C   0  0  0  0  0  0  0  0  0  0  0  0
   16.7610    8.7180   24.6000 H   0  0  0  0  0  0  0  0  0  0  0  0
   16.2390   12.0520   24.7560 C   0  0  0  0  0  0  0  0  0  0  0  0
   16.6960   12.9530   25.1390 H   0  0  0  0  0  0  0  0  0  0  0  0
   23.6860   12.6270   19.7630 C   0  0  0  0  0  0  0  0  0  0  0  0
   23.6440   13.6460   19.4070 H   0  0  0  0  0  0  0  0  0  0  0  0
   14.4700   10.9700   23.5840 C   0  0  0  0  0  0  0  0  0  0  0  0
   23.1220   10.9800   21.3910 C   0  0  0  0  0  0  0  0  0  0  0  0
   16.8470   10.8330   24.9450 C   0  0  0  0  0  0  0  0  0  0  0  0
   23.0760   12.2600   20.9370 C   0  0  0  0  0  0  0  0  0  0  0  0
   21.9740   12.3100   22.9070 C   0  0  0  0  0  0  0  0  0  0  0  0
   20.2480   10.0580   25.0130 C   0  0  0  0  0  0  0  0  0  0  0  0
   21.1630   10.0370   22.5850 C   0  0  0  0  0  0  0  0  0  0  0  0
   20.2840   10.6540   22.3970 H   0  0  0  0  0  0  0  0  0  0  0  0
   21.2550    9.2870   21.8000 H   0  0  0  0  0  0  0  0  0  0  0  0
   23.2920   10.3710   23.7700 C   0  0  0  0  0  0  0  0  0  0  0  0
   23.5660   11.1790   24.4480 H   0  0  0  0  0  0  0  0  0  0  0  0
   24.1950    9.9190   23.3590 H   0  0  0  0  0  0  0  0  0  0  0  0
   21.0810    9.3820   23.9510 C   0  0  3  0  0  0  0  0  0  0  0  0
   20.5920    8.4230   23.7780 H   0  0  0  0  0  0  0  0  0  0  0  0
   22.4010   10.8810   22.6650 C   0  0  3  0  0  0  0  0  0  0  0  0
   18.1470   10.7900   25.6660 C   0  0  0  0  0  0  0  0  0  0  0  0
   18.1050   10.1380   26.5380 H   0  0  0  0  0  0  0  0  0  0  0  0
   18.4730   11.7840   25.9710 H   0  0  0  0  0  0  0  0  0  0  0  0
   12.2330   11.2250   22.3630 N   0  0  0  0  0  0  0  0  0  0  0  0
   22.3600   13.0590   21.8280 N   0  0  0  0  0  0  0  0  0  0  0  0
   22.1570   14.0400   21.6970 H   0  0  0  0  0  0  0  0  0  0  0  0
   22.4680    9.3530   24.4720 N   0  3  0  0  0  0  0  0  0  0  0  0
   22.4580    9.5540   25.4620 H   0  0  0  0  0  0  0  0  0  0  0  0
   22.8650    8.4370   24.3180 H   0  0  0  0  0  0  0  0  0  0  0  0
   21.3720   12.6990   23.9000 O   0  0  0  0  0  0  0  0  0  0  0  0
   20.6960   10.3620   26.1030 O   0  0  0  0  0  0  0  0  0  0  0  0
   18.9800   10.2510   24.6420 O   0  0  0  0  0  0  0  0  0  0  0  0
  1 18  1  0  0  0  0
  1 36  3  0  0  0  0
  2  3  1  0  0  0  0
  2  4  2  0  0  0  0
  2 10  1  0  0  0  0
  4  5  1  0  0  0  0
  4 16  1  0  0  0  0
  6  7  1  0  0  0  0
  6 12  1  0  0  0  0
  6 18  2  0  0  0  0
  8  9  1  0  0  0  0
  8 14  2  0  0  0  0
  8 18  1  0  0  0  0
 10 11  1  0  0  0  0
 10 19  2  0  0  0  0
 12 13  1  0  0  0  0
 12 20  2  0  0  0  0
 14 15  1  0  0  0  0
 14 20  1  0  0  0  0
 16 17  1  0  0  0  0
 16 21  2  0  0  0  0
 19 21  1  0  0  0  0
 19 32  1  0  0  0  0
 20 33  1  0  0  0  0
 21 37  1  0  0  0  0
 22 32  1  0  0  0  0
 22 37  1  0  0  0  0
 22 42  2  0  0  0  0
 23 30  1  0  0  0  0
 23 43  2  0  0  0  0
 23 44  1  0  0  0  0
 24 25  1  0  0  0  0
 24 26  1  0  0  0  0
 24 30  1  0  0  0  0
 24 32  1  0  0  0  0
 27 28  1  0  0  0  0
 27 29  1  0  0  0  0
 27 32  1  0  0  0  0
 27 39  1  0  0  0  0
 30 31  1  0  0  0  0
 30 39  1  0  0  0  0
 33 34  1  0  0  0  0
 33 35  1  0  0  0  0
 33 44  1  0  0  0  0
 37 38  1  0  0  0  0
 39 40  1  0  0  0  0
 39 41  1  0  0  0  0
M  CHG  1  39   1
M  END
>  <PARENT_CMPD_ID>
3UDN

>  <STANDARD_TYPE>
IC50

>  <RELATION>
=

>  <STANDARD_VALUE>
12.2

>  <STANDARD_UNITS>
uM

>  <COMPOUND_KEY>
9

>  <PUBMED_ID>
22468999

>  <JOURNAL>
J.Med.Chem.

>  <YEAR>
2012

>  <VOLUME>
55

>  <FIRST_PAGE>
9069

>  <Company>
Pfizer

>  <Resolution>
2.1900001

>  <idx>
170

>  <Model>
Train

>  <target>
4.91364

>  <des_pred_mlr>
5.6043501

>  <RF_Canvas>
4.9865232

>  <DNN_Canvas>
4.8547783

>  <pred_CoMFA>
4.9169002

>  <pred_COMSIA>
4.9047999

>  <pred_abm5>
4.9130197

>  <pred_ff8>
4.976265

>  <pred_gau6>
4.6721234

>  <CID>
BACE_170

>  <active>
0

>  <des_class_bayes>
1

>  <maacs_class_bayes>
0

>  <radial_class_bayes>
0

>  <dend_class_bayes>
0

>  <molprint_class_bayes>
0

>  <RF_canvas>
0

>  <DNN_canvas>
0

$$$$
3VV8_8838
  MOE2015           3D

 46 49  0  0  1  0  0  0  0  0999 V2000
   22.0520   13.6390   23.5710 O   0  0  0  0  0  0  0  0  0  0  0  0
   21.9140   12.4020   23.3580 C   0  0  0  0  0  0  0  0  0  0  0  0
   22.5370   11.4530   24.2050 N   0  0  0  0  0  0  0  0  0  0  0  0
   23.3590   11.9400   25.3200 C   0  0  0  0  0  0  0  0  0  0  0  0
   23.3430   13.0300   25.3340 H   0  0  0  0  0  0  0  0  0  0  0  0
   24.3850   11.5930   25.1940 H   0  0  0  0  0  0  0  0  0  0  0  0
   22.9590   11.5590   26.2600 H   0  0  0  0  0  0  0  0  0  0  0  0
   22.3740   10.0630   23.9420 C   0  0  0  0  0  0  0  0  0  0  0  0
   22.9670    9.1330   24.7330 N   0  0  0  0  0  0  0  0  0  0  0  0
   22.8450    8.1500   24.5360 H   0  0  0  0  0  0  0  0  0  0  0  0
   23.5310    9.4240   25.5190 H   0  0  0  0  0  0  0  0  0  0  0  0
   21.6180    9.6560   22.8870 N   0  0  0  0  0  0  0  0  0  0  0  0
   21.0080   10.5480   22.0630 C   0  0  0  0  0  0  0  0  0  0  0  0
   21.1470   11.9290   22.2890 C   0  0  0  0  0  0  0  0  0  0  0  0
   20.6570   12.6310   21.6310 H   0  0  0  0  0  0  0  0  0  0  0  0
   20.1810   10.0610   20.9220 C   0  0  3  0  0  0  0  0  0  0  0  0
   19.5370    9.3570   21.4490 H   0  0  0  0  0  0  0  0  0  0  0  0
   20.0170   11.1920   19.8920 C   0  0  0  0  0  0  0  0  0  0  0  0
   20.4390   12.1770   20.0920 H   0  0  0  0  0  0  0  0  0  0  0  0
   19.0790   11.3020   19.3480 H   0  0  0  0  0  0  0  0  0  0  0  0
   20.9400   10.0130   19.5910 C   0  0  3  0  0  0  0  0  0  0  0  0
   21.0240    9.3100   18.7620 H   0  0  0  0  0  0  0  0  0  0  0  0
   22.4210   10.2550   19.6990 C   0  0  0  0  0  0  0  0  0  0  0  0
   23.0530   11.1600   18.8490 C   0  0  0  0  0  0  0  0  0  0  0  0
   22.4650   11.7200   18.1370 H   0  0  0  0  0  0  0  0  0  0  0  0
   24.4340   11.3550   18.9020 C   0  0  0  0  0  0  0  0  0  0  0  0
   24.9020   12.0680   18.2390 H   0  0  0  0  0  0  0  0  0  0  0  0
   25.2120   10.6350   19.8060 C   0  0  0  0  0  0  0  0  0  0  0  0
   24.5970    9.7080   20.6470 C   0  0  0  0  0  0  0  0  0  0  0  0
   25.1880    9.1390   21.3490 H   0  0  0  0  0  0  0  0  0  0  0  0
   23.2160    9.5170   20.5800 C   0  0  0  0  0  0  0  0  0  0  0  0
   22.7520    8.7830   21.2230 H   0  0  0  0  0  0  0  0  0  0  0  0
   26.6960   10.8430   19.8530 C   0  0  0  0  0  0  0  0  0  0  0  0
   27.3220   11.4790   18.7840 C   0  0  0  0  0  0  0  0  0  0  0  0
   26.7410   11.8220   17.9410 H   0  0  0  0  0  0  0  0  0  0  0  0
   28.7010   11.6710   18.8070 C   0  0  0  0  0  0  0  0  0  0  0  0
   29.1820   12.1730   17.9800 H   0  0  0  0  0  0  0  0  0  0  0  0
   29.4680   11.2270   19.8760 C   0  0  0  0  0  0  0  0  0  0  0  0
   30.5360   11.3890   19.8800 H   0  0  0  0  0  0  0  0  0  0  0  0
   28.8590   10.5750   20.9390 C   0  0  0  0  0  0  0  0  0  0  0  0
   29.6990   10.1000   22.0950 C   0  0  0  0  0  0  0  0  0  0  0  0
   30.7440   10.3490   21.9110 H   0  0  0  0  0  0  0  0  0  0  0  0
   29.5960    9.0200   22.1990 H   0  0  0  0  0  0  0  0  0  0  0  0
   29.3650   10.5870   23.0110 H   0  0  0  0  0  0  0  0  0  0  0  0
   27.4760   10.3790   20.9240 C   0  0  0  0  0  0  0  0  0  0  0  0
   27.0010    9.8640   21.7460 H   0  0  0  0  0  0  0  0  0  0  0  0
  1  2  2  0  0  0  0
  2  3  1  0  0  0  0
  2 14  1  0  0  0  0
  3  4  1  0  0  0  0
  3  8  1  0  0  0  0
  4  5  1  0  0  0  0
  4  6  1  0  0  0  0
  4  7  1  0  0  0  0
  8  9  1  0  0  0  0
  8 12  2  0  0  0  0
  9 10  1  0  0  0  0
  9 11  1  0  0  0  0
 12 13  1  0  0  0  0
 13 14  2  0  0  0  0
 13 16  1  0  0  0  0
 14 15  1  0  0  0  0
 16 17  1  0  0  0  0
 16 18  1  0  0  0  0
 16 21  1  0  0  0  0
 18 19  1  0  0  0  0
 18 20  1  0  0  0  0
 18 21  1  0  0  0  0
 21 22  1  0  0  0  0
 21 23  1  0  0  0  0
 23 24  1  0  0  0  0
 23 31  2  0  0  0  0
 24 25  1  0  0  0  0
 24 26  2  0  0  0  0
 26 27  1  0  0  0  0
 26 28  1  0  0  0  0
 28 29  2  0  0  0  0
 28 33  1  0  0  0  0
 29 30  1  0  0  0  0
 29 31  1  0  0  0  0
 31 32  1  0  0  0  0
 33 34  1  0  0  0  0
 33 45  2  0  0  0  0
 34 35  1  0  0  0  0
 34 36  2  0  0  0  0
 36 37  1  0  0  0  0
 36 38  1  0  0  0  0
 38 39  1  0  0  0  0
 38 40  2  0  0  0  0
 40 41  1  0  0  0  0
 40 45  1  0  0  0  0
 41 42  1  0  0  0  0
 41 43  1  0  0  0  0
 41 44  1  0  0  0  0
 45 46  1  0  0  0  0
M  END
>  <PARENT_CMPD_ID>
3VV8

>  <STANDARD_TYPE>
IC50

>  <RELATION>
=

>  <STANDARD_VALUE>
17.1

>  <STANDARD_UNITS>
uM

>  <COMPOUND_KEY>
36

>  <PUBMED_ID>
22998419

>  <JOURNAL>
J.Med.Chem.

>  <YEAR>
2012

>  <VOLUME>
55

>  <FIRST_PAGE>
8838

>  <Company>
Shionogi

>  <Resolution>
2.5

>  <idx>
171

>  <Model>
Train

>  <target>
4.767004

>  <des_pred_mlr>
5.7297902

>  <RF_Canvas>
4.8914943

>  <DNN_Canvas>
5.0004334

>  <pred_CoMFA>
5.5542002

>  <pred_COMSIA>
5.7996001

>  <pred_abm5>
5.1167169

>  <pred_ff8>
5.5059214

>  <pred_gau6>
5.623755

>  <CID>
BACE_171

>  <active>
0

>  <des_class_bayes>
0

>  <maacs_class_bayes>
0

>  <radial_class_bayes>
0

>  <dend_class_bayes>
0

>  <molprint_class_bayes>
0

>  <RF_canvas>
0

>  <DNN_canvas>
0

$$$$
3WB5_6506
  MOE2015           3D

 38 40  0  0  1  0  0  0  0  0999 V2000
   22.2340   13.2730   22.8610 O   0  0  0  0  0  0  0  0  0  0  0  0
   22.0130   12.0760   22.9000 C   0  0  0  0  0  0  0  0  0  0  0  0
   22.6280   11.2650   23.7730 N   0  0  0  0  0  0  0  0  0  0  0  0
   23.4230   11.8030   24.8710 C   0  0  0  0  0  0  0  0  0  0  0  0
   22.5140    9.9440   23.6010 C   0  0  0  0  0  0  0  0  0  0  0  0
   22.7520    9.1260   24.6250 N   0  0  0  0  0  0  0  0  0  0  0  0
   22.2320    9.4440   22.4750 N   0  0  0  0  0  0  0  0  0  0  0  0
   21.0340   11.4900   21.9180 C   0  0  0  0  0  0  0  0  0  0  0  0
   21.6000   10.1860   21.3950 C   0  0  3  0  0  0  0  0  0  0  0  0
   20.4790    9.3650   20.7760 C   0  0  0  0  0  0  0  0  0  0  0  0
   22.6110   10.5190   20.3010 C   0  0  3  0  0  0  0  0  0  0  0  0
   23.3450    9.2870   19.7820 C   0  0  0  0  0  0  0  0  0  0  0  0
   24.0370   10.2280   20.7590 C   0  0  3  0  0  0  0  0  0  0  0  0
   24.9370   11.1770   20.0730 C   0  0  0  0  0  0  0  0  0  0  0  0
   25.7320   12.0310   20.8260 C   0  0  0  0  0  0  0  0  0  0  0  0
   26.5820   12.9280   20.1910 C   0  0  0  0  0  0  0  0  0  0  0  0
   26.6320   12.9710   18.8050 C   0  0  0  0  0  0  0  0  0  0  0  0
   25.8350   12.1170   18.0530 C   0  0  0  0  0  0  0  0  0  0  0  0
   24.9830   11.2210   18.6850 C   0  0  0  0  0  0  0  0  0  0  0  0
   23.3930   12.8920   24.8420 H   0  0  0  0  0  0  0  0  0  0  0  0
   24.4550   11.4660   24.7720 H   0  0  0  0  0  0  0  0  0  0  0  0
   23.0160   11.4530   25.8200 H   0  0  0  0  0  0  0  0  0  0  0  0
   22.7050    8.1260   24.4940 H   0  0  0  0  0  0  0  0  0  0  0  0
   22.4590    8.4730   22.3160 H   0  0  0  0  0  0  0  0  0  0  0  0
   20.8830   12.1840   21.0910 H   0  0  0  0  0  0  0  0  0  0  0  0
   20.0820   11.3050   22.4150 H   0  0  0  0  0  0  0  0  0  0  0  0
   19.7450    9.1160   21.5420 H   0  0  0  0  0  0  0  0  0  0  0  0
   20.8900    8.4470   20.3550 H   0  0  0  0  0  0  0  0  0  0  0  0
   19.9990    9.9430   19.9870 H   0  0  0  0  0  0  0  0  0  0  0  0
   22.0920   11.3570   19.8350 H   0  0  0  0  0  0  0  0  0  0  0  0
   23.6710    9.2450   18.7430 H   0  0  0  0  0  0  0  0  0  0  0  0
   23.0380    8.2930   20.1070 H   0  0  0  0  0  0  0  0  0  0  0  0
   24.5610   10.0830   21.7040 H   0  0  0  0  0  0  0  0  0  0  0  0
   25.6900   11.9980   21.9050 H   0  0  0  0  0  0  0  0  0  0  0  0
   27.2030   13.5910   20.7750 H   0  0  0  0  0  0  0  0  0  0  0  0
   27.2910   13.6690   18.3100 H   0  0  0  0  0  0  0  0  0  0  0  0
   25.8780   12.1500   16.9740 H   0  0  0  0  0  0  0  0  0  0  0  0
   24.3590   10.5610   18.1000 H   0  0  0  0  0  0  0  0  0  0  0  0
  1  2  2  0  0  0  0
  2  3  1  0  0  0  0
  2  8  1  0  0  0  0
  3  4  1  0  0  0  0
  3  5  1  0  0  0  0
  4 20  1  0  0  0  0
  4 21  1  0  0  0  0
  4 22  1  0  0  0  0
  5  6  2  0  0  0  0
  5  7  1  0  0  0  0
  6 23  1  0  0  0  0
  7  9  1  0  0  0  0
  7 24  1  0  0  0  0
  8  9  1  0  0  0  0
  8 25  1  0  0  0  0
  8 26  1  0  0  0  0
  9 10  1  0  0  0  0
  9 11  1  0  0  0  0
 10 27  1  0  0  0  0
 10 28  1  0  0  0  0
 10 29  1  0  0  0  0
 11 12  1  0  0  0  0
 11 13  1  0  0  0  0
 11 30  1  0  0  0  0
 12 13  1  0  0  0  0
 12 31  1  0  0  0  0
 12 32  1  0  0  0  0
 13 14  1  0  0  0  0
 13 33  1  0  0  0  0
 14 15  1  0  0  0  0
 14 19  2  0  0  0  0
 15 16  2  0  0  0  0
 15 34  1  0  0  0  0
 16 17  1  0  0  0  0
 16 35  1  0  0  0  0
 17 18  2  0  0  0  0
 17 36  1  0  0  0  0
 18 19  1  0  0  0  0
 18 37  1  0  0  0  0
 19 38  1  0  0  0  0
M  END
>  <PARENT_CMPD_ID>
3WB5

>  <STANDARD_TYPE>
IC50

>  <RELATION>
=

>  <STANDARD_VALUE>
18

>  <STANDARD_UNITS>
uM

>  <COMPOUND_KEY>
6

>  <PUBMED_ID>
24051074

>  <JOURNAL>
Bioorg.Med.Chem.

>  <YEAR>
2013

>  <VOLUME>
21

>  <FIRST_PAGE>
6506

>  <Company>
Shionogi

>  <Resolution>
2.5

>  <idx>
172

>  <Model>
Train

>  <target>
4.7447276

>  <des_pred_mlr>
5.3228998

>  <RF_Canvas>
4.5100088

>  <DNN_Canvas>
4.4584007

>  <pred_CoMFA>
4.0158

>  <pred_COMSIA>
4.8011999

>  <pred_abm5>
4.4858823

>  <pred_ff8>
4.0258369

>  <pred_gau6>
3.828589

>  <CID>
BACE_172

>  <active>
0

>  <des_class_bayes>
0

>  <maacs_class_bayes>
0

>  <radial_class_bayes>
0

>  <dend_class_bayes>
0

>  <molprint_class_bayes>
0

>  <RF_canvas>
0

>  <DNN_canvas>
0

$$$$
3UDP_9069
  MOE2015           3D

 48 52  0  0  1  0  0  0  0  0999 V2000
   24.1010   10.3930   19.3210 C   0  0  0  0  0  0  0  0  0  0  0  0
   24.5310    9.6290   18.6910 H   0  0  0  0  0  0  0  0  0  0  0  0
   23.9940   11.6910   18.8510 C   0  0  0  0  0  0  0  0  0  0  0  0
   24.3430   11.9280   17.8570 H   0  0  0  0  0  0  0  0  0  0  0  0
   23.6620   10.0690   20.5880 C   0  0  0  0  0  0  0  0  0  0  0  0
   23.7540    9.0610   20.9660 H   0  0  0  0  0  0  0  0  0  0  0  0
   23.4460   12.6870   19.6380 C   0  0  0  0  0  0  0  0  0  0  0  0
   23.3780   13.7060   19.2850 H   0  0  0  0  0  0  0  0  0  0  0  0
   15.3110   12.6440   24.8770 C   0  0  0  0  0  0  0  0  0  0  0  0
   14.7040   13.5370   24.8570 H   0  0  0  0  0  0  0  0  0  0  0  0
   14.7810   11.4590   24.4090 C   0  0  0  0  0  0  0  0  0  0  0  0
   13.7720   11.4190   24.0270 H   0  0  0  0  0  0  0  0  0  0  0  0
   16.8520   10.3900   24.9150 C   0  0  0  0  0  0  0  0  0  0  0  0
   17.4610    9.4980   24.9130 H   0  0  0  0  0  0  0  0  0  0  0  0
   23.1030   11.0640   21.3580 C   0  0  0  0  0  0  0  0  0  0  0  0
   17.3810   11.5660   25.3950 C   0  0  0  0  0  0  0  0  0  0  0  0
   22.9920   12.3340   20.8830 C   0  0  0  0  0  0  0  0  0  0  0  0
   16.6040   12.7150   25.3720 C   0  0  0  0  0  0  0  0  0  0  0  0
   15.5660   10.3280   24.4390 C   0  0  0  0  0  0  0  0  0  0  0  0
   22.1580   12.4180   22.9820 C   0  0  0  0  0  0  0  0  0  0  0  0
   20.6670   10.2070   25.2120 C   0  0  0  0  0  0  0  0  0  0  0  0
   19.4180   12.8450   26.0250 C   0  0  0  0  0  0  0  0  0  0  0  0
   20.4240   12.7490   26.4340 H   0  0  0  0  0  0  0  0  0  0  0  0
   19.4670   13.3300   25.0500 H   0  0  0  0  0  0  0  0  0  0  0  0
   21.2010   10.2370   22.7770 C   0  0  0  0  0  0  0  0  0  0  0  0
   20.3610   10.9310   22.7940 H   0  0  0  0  0  0  0  0  0  0  0  0
   21.0990    9.5640   21.9260 H   0  0  0  0  0  0  0  0  0  0  0  0
   23.4470   10.4400   23.7400 C   0  0  0  0  0  0  0  0  0  0  0  0
   23.6590   11.1890   24.5030 H   0  0  0  0  0  0  0  0  0  0  0  0
   24.3800   10.1150   23.2800 H   0  0  0  0  0  0  0  0  0  0  0  0
   18.5740   13.6830   26.9600 C   0  0  0  0  0  0  0  0  0  0  0  0
   19.1570   14.5180   27.3470 H   0  0  0  0  0  0  0  0  0  0  0  0
   18.2150   13.0750   27.7900 H   0  0  0  0  0  0  0  0  0  0  0  0
   18.8050   11.4720   25.8720 C   0  0  3  0  0  0  0  0  0  0  0  0
   18.8560   10.9690   26.8370 H   0  0  0  0  0  0  0  0  0  0  0  0
   21.2710    9.4570   24.0660 C   0  0  3  0  0  0  0  0  0  0  0  0
   20.7250    8.5170   23.9840 H   0  0  0  0  0  0  0  0  0  0  0  0
   22.5060   10.9850   22.7070 C   0  0  3  0  0  0  0  0  0  0  0  0
   22.4170   13.1530   21.8500 N   0  0  0  0  0  0  0  0  0  0  0  0
   22.2200   14.1370   21.7370 H   0  0  0  0  0  0  0  0  0  0  0  0
   22.7260    9.2990   24.3160 N   0  3  0  0  0  0  0  0  0  0  0  0
   22.8950    9.2620   25.3110 H   0  0  0  0  0  0  0  0  0  0  0  0
   23.0510    8.4440   23.8870 H   0  0  0  0  0  0  0  0  0  0  0  0
   21.6660   12.8100   24.0260 O   0  0  0  0  0  0  0  0  0  0  0  0
   21.1760   10.2650   26.3210 O   0  0  0  0  0  0  0  0  0  0  0  0
   19.5070   10.7870   24.8300 O   0  0  0  0  0  0  0  0  0  0  0  0
   17.1800   14.2940   25.9850 S   0  0  0  0  0  0  0  0  0  0  0  0
   14.9270    8.6570   23.7970 Br  0  0  0  0  0  0  0  0  0  0  0  0
  1  2  1  0  0  0  0
  1  3  2  0  0  0  0
  1  5  1  0  0  0  0
  3  4  1  0  0  0  0
  3  7  1  0  0  0  0
  5  6  1  0  0  0  0
  5 15  2  0  0  0  0
  7  8  1  0  0  0  0
  7 17  2  0  0  0  0
  9 10  1  0  0  0  0
  9 11  1  0  0  0  0
  9 18  2  0  0  0  0
 11 12  1  0  0  0  0
 11 19  2  0  0  0  0
 13 14  1  0  0  0  0
 13 16  2  0  0  0  0
 13 19  1  0  0  0  0
 15 17  1  0  0  0  0
 15 38  1  0  0  0  0
 16 18  1  0  0  0  0
 16 34  1  0  0  0  0
 17 39  1  0  0  0  0
 18 47  1  0  0  0  0
 19 48  1  0  0  0  0
 20 38  1  0  0  0  0
 20 39  1  0  0  0  0
 20 44  2  0  0  0  0
 21 36  1  0  0  0  0
 21 45  2  0  0  0  0
 21 46  1  0  0  0  0
 22 23  1  0  0  0  0
 22 24  1  0  0  0  0
 22 31  1  0  0  0  0
 22 34  1  0  0  0  0
 25 26  1  0  0  0  0
 25 27  1  0  0  0  0
 25 36  1  0  0  0  0
 25 38  1  0  0  0  0
 28 29  1  0  0  0  0
 28 30  1  0  0  0  0
 28 38  1  0  0  0  0
 28 41  1  0  0  0  0
 31 32  1  0  0  0  0
 31 33  1  0  0  0  0
 31 47  1  0  0  0  0
 34 35  1  0  0  0  0
 34 46  1  0  0  0  0
 36 37  1  0  0  0  0
 36 41  1  0  0  0  0
 39 40  1  0  0  0  0
 41 42  1  0  0  0  0
 41 43  1  0  0  0  0
M  CHG  1  41   1
M  END
>  <PARENT_CMPD_ID>
3UDP

>  <STANDARD_TYPE>
IC50

>  <RELATION>
=

>  <STANDARD_VALUE>
22.6

>  <STANDARD_UNITS>
uM

>  <COMPOUND_KEY>
12

>  <PUBMED_ID>
22468999

>  <JOURNAL>
J.Med.Chem.

>  <YEAR>
2012

>  <VOLUME>
55

>  <FIRST_PAGE>
9069

>  <Company>
Pfizer

>  <Resolution>
1.95

>  <idx>
173

>  <Model>
Train

>  <target>
4.6458917

>  <des_pred_mlr>
6.0237999

>  <RF_Canvas>
4.9480214

>  <DNN_Canvas>
4.7993474

>  <pred_CoMFA>
4.9654999

>  <pred_COMSIA>
5.3295999

>  <pred_abm5>
5.0747309

>  <pred_ff8>
4.9013968

>  <pred_gau6>
5.0117831

>  <CID>
BACE_173

>  <active>
0

>  <des_class_bayes>
0

>  <maacs_class_bayes>
0

>  <radial_class_bayes>
0

>  <dend_class_bayes>
0

>  <molprint_class_bayes>
0

>  <RF_canvas>
0

>  <DNN_canvas>
0

$$$$
3EXO_17
  MOE2015           3D

 43 45  0  0  0  0  0  0  0  0999 V2000
   24.6010   10.7370   20.4110 C   0  0  0  0  0  0  0  0  0  0  0  0
   23.7040   11.4610   19.6340 C   0  0  0  0  0  0  0  0  0  0  0  0
   24.1550   12.3660   18.6750 C   0  0  0  0  0  0  0  0  0  0  0  0
   25.5180   12.5700   18.4660 C   0  0  0  0  0  0  0  0  0  0  0  0
   26.4200   11.8430   19.2540 C   0  0  0  0  0  0  0  0  0  0  0  0
   25.9810   10.9320   20.2210 C   0  0  0  0  0  0  0  0  0  0  0  0
   25.9940   13.4340   17.5560 N   0  0  0  0  0  0  0  0  0  0  0  0
   25.8460   13.1620   16.5950 H   0  0  0  0  0  0  0  0  0  0  0  0
   26.6360   14.6030   17.7200 C   0  0  0  0  0  0  0  0  0  0  0  0
   26.8250   15.4130   16.5900 C   0  0  0  0  0  0  0  0  0  0  0  0
   27.4920   16.6340   16.7310 C   0  0  0  0  0  0  0  0  0  0  0  0
   27.9430   17.0210   17.9580 N   0  0  0  0  0  0  0  0  0  0  0  0
   27.7310   16.1820   19.0040 C   0  0  0  0  0  0  0  0  0  0  0  0
   27.0940   14.9920   18.9410 N   0  0  0  0  0  0  0  0  0  0  0  0
   27.7480   17.5960   15.5950 C   0  0  0  0  0  0  0  0  0  0  0  0
   27.9280   18.9710   15.8440 C   0  0  0  0  0  0  0  0  0  0  0  0
   28.1670   19.8910   14.8140 C   0  0  0  0  0  0  0  0  0  0  0  0
   28.2240   19.4490   13.4880 C   0  0  0  0  0  0  0  0  0  0  0  0
   28.0440   18.0890   13.2100 C   0  0  0  0  0  0  0  0  0  0  0  0
   27.8100   17.1820   14.2520 C   0  0  0  0  0  0  0  0  0  0  0  0
   24.0310    9.7830   21.4340 C   0  0  0  0  0  0  0  0  0  0  0  0
   26.8490   10.2270   20.9900 N   0  0  0  0  0  0  0  0  0  0  0  0
   28.5600   10.3210   21.0090 S   0  0  0  0  0  0  0  0  0  0  0  0
   28.8830   11.8480   21.6990 C   0  0  0  0  0  0  0  0  0  0  0  0
   29.0780    9.2050   22.1690 O   0  0  0  0  0  0  0  0  0  0  0  0
   29.2060   10.2870   19.4380 O   0  0  0  0  0  0  0  0  0  0  0  0
   22.6430   11.3200   19.7760 H   0  0  0  0  0  0  0  0  0  0  0  0
   23.4380   12.9170   18.0850 H   0  0  0  0  0  0  0  0  0  0  0  0
   27.4800   11.9890   19.1110 H   0  0  0  0  0  0  0  0  0  0  0  0
   26.4600   15.0980   15.6240 H   0  0  0  0  0  0  0  0  0  0  0  0
   28.1030   16.4920   19.9690 H   0  0  0  0  0  0  0  0  0  0  0  0
   27.8800   19.3280   16.8620 H   0  0  0  0  0  0  0  0  0  0  0  0
   28.3070   20.9370   15.0430 H   0  0  0  0  0  0  0  0  0  0  0  0
   28.4050   20.1500   12.6870 H   0  0  0  0  0  0  0  0  0  0  0  0
   28.0860   17.7380   12.1900 H   0  0  0  0  0  0  0  0  0  0  0  0
   27.6740   16.1370   14.0180 H   0  0  0  0  0  0  0  0  0  0  0  0
   22.9420    9.8100   21.3890 H   0  0  0  0  0  0  0  0  0  0  0  0
   24.3610   10.0790   22.4300 H   0  0  0  0  0  0  0  0  0  0  0  0
   24.3790    8.7720   21.2220 H   0  0  0  0  0  0  0  0  0  0  0  0
   26.4350    9.5650   21.6310 H   0  0  0  0  0  0  0  0  0  0  0  0
   28.4740   11.8840   22.7090 H   0  0  0  0  0  0  0  0  0  0  0  0
   28.4210   12.6260   21.0910 H   0  0  0  0  0  0  0  0  0  0  0  0
   29.9600   12.0090   21.7380 H   0  0  0  0  0  0  0  0  0  0  0  0
  1  2  1  0  0  0  0
  1  6  2  0  0  0  0
  1 21  1  0  0  0  0
  2  3  2  0  0  0  0
  2 27  1  0  0  0  0
  3  4  1  0  0  0  0
  3 28  1  0  0  0  0
  4  5  2  0  0  0  0
  4  7  1  0  0  0  0
  5  6  1  0  0  0  0
  5 29  1  0  0  0  0
  6 22  1  0  0  0  0
  7  8  1  0  0  0  0
  7  9  1  0  0  0  0
  9 10  1  0  0  0  0
  9 14  2  0  0  0  0
 10 11  2  0  0  0  0
 10 30  1  0  0  0  0
 11 12  1  0  0  0  0
 11 15  1  0  0  0  0
 12 13  2  0  0  0  0
 13 14  1  0  0  0  0
 13 31  1  0  0  0  0
 15 16  1  0  0  0  0
 15 20  2  0  0  0  0
 16 17  2  0  0  0  0
 16 32  1  0  0  0  0
 17 18  1  0  0  0  0
 17 33  1  0  0  0  0
 18 19  2  0  0  0  0
 18 34  1  0  0  0  0
 19 20  1  0  0  0  0
 19 35  1  0  0  0  0
 20 36  1  0  0  0  0
 21 37  1  0  0  0  0
 21 38  1  0  0  0  0
 21 39  1  0  0  0  0
 22 23  1  0  0  0  0
 22 40  1  0  0  0  0
 23 24  1  0  0  0  0
 23 25  2  0  0  0  0
 23 26  2  0  0  0  0
 24 41  1  0  0  0  0
 24 42  1  0  0  0  0
 24 43  1  0  0  0  0
M  END
>  <PARENT_CMPD_ID>
3EXO

>  <STANDARD_TYPE>
IC50

>  <RELATION>
=

>  <STANDARD_VALUE>
24

>  <STANDARD_UNITS>
uM

>  <COMPOUND_KEY>
5

>  <PUBMED_ID>
19036583

>  <JOURNAL>
Bioorg.Med.Chem.Lett.

>  <YEAR>
2009

>  <VOLUME>
19

>  <FIRST_PAGE>
17

>  <Company>
Merck

>  <Resolution>
2.0999999

>  <idx>
174

>  <Model>
Train

>  <target>
4.6197886

>  <des_pred_mlr>
7.0284801

>  <RF_Canvas>
4.8674092

>  <DNN_Canvas>
4.9997125

>  <pred_CoMFA>
4.6719999

>  <pred_COMSIA>
4.9966002

>  <pred_abm5>
4.602428

>  <pred_ff8>
4.4322643

>  <pred_gau6>
4.7072649

>  <CID>
BACE_174

>  <active>
0

>  <des_class_bayes>
0

>  <maacs_class_bayes>
1

>  <radial_class_bayes>
0

>  <dend_class_bayes>
0

>  <molprint_class_bayes>
0

>  <RF_canvas>
0

>  <DNN_canvas>
0

$$$$
2OHQ_1124
  MOE2015           3D

 43 45  0  0  0  0  0  0  0  0999 V2000
   30.7270    8.5940   23.7710 C   0  0  0  0  0  0  0  0  0  0  0  0
   29.5780    8.6240   22.9210 O   0  0  0  0  0  0  0  0  0  0  0  0
   29.4230    9.7090   22.0920 C   0  0  0  0  0  0  0  0  0  0  0  0
   30.3320   10.7490   21.9620 C   0  0  0  0  0  0  0  0  0  0  0  0
   30.0670   11.8060   21.1190 C   0  0  0  0  0  0  0  0  0  0  0  0
   28.8950   11.8410   20.3960 C   0  0  0  0  0  0  0  0  0  0  0  0
   27.9590   10.8200   20.5120 C   0  0  0  0  0  0  0  0  0  0  0  0
   28.2390    9.7540   21.3650 C   0  0  0  0  0  0  0  0  0  0  0  0
   26.6860   10.8770   19.7370 C   0  0  0  0  0  0  0  0  0  0  0  0
   26.5840   11.6820   18.6060 C   0  0  0  0  0  0  0  0  0  0  0  0
   25.4040   11.7500   17.8930 C   0  0  0  0  0  0  0  0  0  0  0  0
   24.3100   11.0190   18.2980 C   0  0  0  0  0  0  0  0  0  0  0  0
   24.3760   10.2190   19.4290 C   0  0  0  0  0  0  0  0  0  0  0  0
   23.1780    9.4120   19.8550 C   0  0  0  0  0  0  0  0  0  0  0  0
   22.0650   10.2680   20.4260 C   0  0  0  0  0  0  0  0  0  0  0  0
   22.3910   10.7400   21.8170 C   0  0  0  0  0  0  0  0  0  0  0  0
   22.5140   12.0910   22.1250 C   0  0  0  0  0  0  0  0  0  0  0  0
   22.8280   12.4750   23.4140 C   0  0  0  0  0  0  0  0  0  0  0  0
   23.0230   11.5150   24.3860 C   0  0  0  0  0  0  0  0  0  0  0  0
   22.9110   10.1650   24.0630 C   0  0  0  0  0  0  0  0  0  0  0  0
   23.1240    9.2130   24.9730 N   0  0  0  0  0  0  0  0  0  0  0  0
   22.5910    9.8050   22.7900 N   0  0  0  0  0  0  0  0  0  0  0  0
   25.5660   10.1550   20.1460 C   0  0  0  0  0  0  0  0  0  0  0  0
   31.6180    8.5980   23.1610 H   0  0  0  0  0  0  0  0  0  0  0  0
   30.7100    7.6920   24.3810 H   0  0  0  0  0  0  0  0  0  0  0  0
   30.7260    9.4700   24.4200 H   0  0  0  0  0  0  0  0  0  0  0  0
   31.2540   10.7260   22.5200 H   0  0  0  0  0  0  0  0  0  0  0  0
   30.7820   12.6060   21.0190 H   0  0  0  0  0  0  0  0  0  0  0  0
   28.6970   12.6730   19.7430 H   0  0  0  0  0  0  0  0  0  0  0  0
   27.5220    8.9560   21.4730 H   0  0  0  0  0  0  0  0  0  0  0  0
   27.4360   12.2550   18.2810 H   0  0  0  0  0  0  0  0  0  0  0  0
   25.3410   12.3710   17.0130 H   0  0  0  0  0  0  0  0  0  0  0  0
   23.3930   11.0730   17.7390 H   0  0  0  0  0  0  0  0  0  0  0  0
   22.7970    8.8680   18.9930 H   0  0  0  0  0  0  0  0  0  0  0  0
   23.4870    8.6840   20.6030 H   0  0  0  0  0  0  0  0  0  0  0  0
   21.9110   11.1330   19.7800 H   0  0  0  0  0  0  0  0  0  0  0  0
   21.1430    9.6870   20.4510 H   0  0  0  0  0  0  0  0  0  0  0  0
   22.3450   12.8340   21.3610 H   0  0  0  0  0  0  0  0  0  0  0  0
   22.9100   13.5230   23.6630 H   0  0  0  0  0  0  0  0  0  0  0  0
   23.2770   11.8070   25.3950 H   0  0  0  0  0  0  0  0  0  0  0  0
   23.3650    9.5040   25.8530 H   0  0  0  0  0  0  0  0  0  0  0  0
   23.0010    8.2870   24.7510 H   0  0  0  0  0  0  0  0  0  0  0  0
   25.6240    9.5270   21.0200 H   0  0  0  0  0  0  0  0  0  0  0  0
  1  2  1  0  0  0  0
  1 24  1  0  0  0  0
  1 25  1  0  0  0  0
  1 26  1  0  0  0  0
  2  3  1  0  0  0  0
  3  4  1  0  0  0  0
  3  8  2  0  0  0  0
  4  5  2  0  0  0  0
  4 27  1  0  0  0  0
  5  6  1  0  0  0  0
  5 28  1  0  0  0  0
  6  7  2  0  0  0  0
  6 29  1  0  0  0  0
  7  8  1  0  0  0  0
  7  9  1  0  0  0  0
  8 30  1  0  0  0  0
  9 10  1  0  0  0  0
  9 23  2  0  0  0  0
 10 11  2  0  0  0  0
 10 31  1  0  0  0  0
 11 12  1  0  0  0  0
 11 32  1  0  0  0  0
 12 13  2  0  0  0  0
 12 33  1  0  0  0  0
 13 14  1  0  0  0  0
 13 23  1  0  0  0  0
 14 15  1  0  0  0  0
 14 34  1  0  0  0  0
 14 35  1  0  0  0  0
 15 16  1  0  0  0  0
 15 36  1  0  0  0  0
 15 37  1  0  0  0  0
 16 17  1  0  0  0  0
 16 22  2  0  0  0  0
 17 18  2  0  0  0  0
 17 38  1  0  0  0  0
 18 19  1  0  0  0  0
 18 39  1  0  0  0  0
 19 20  2  0  0  0  0
 19 40  1  0  0  0  0
 20 21  1  0  0  0  0
 20 22  1  0  0  0  0
 21 41  1  0  0  0  0
 21 42  1  0  0  0  0
 23 43  1  0  0  0  0
M  END
>  <PARENT_CMPD_ID>
2OHQ

>  <STANDARD_TYPE>
IC50

>  <RELATION>
=

>  <STANDARD_VALUE>
25

>  <STANDARD_UNITS>
uM

>  <COMPOUND_KEY>
4

>  <PUBMED_ID>
17315857

>  <JOURNAL>
J.Med.Chem.

>  <YEAR>
2007

>  <VOLUME>
50

>  <FIRST_PAGE>
1124

>  <Company>
Astex

>  <Resolution>
2.0999999

>  <idx>
175

>  <Model>
Train

>  <target>
4.6020598

>  <des_pred_mlr>
5.9083099

>  <RF_Canvas>
4.4835954

>  <DNN_Canvas>
4.6765079

>  <pred_CoMFA>
5.0302

>  <pred_COMSIA>
5.5664001

>  <pred_abm5>
4.4242139

>  <pred_ff8>
4.6357708

>  <pred_gau6>
4.905025

>  <CID>
BACE_175

>  <active>
0

>  <des_class_bayes>
0

>  <maacs_class_bayes>
0

>  <radial_class_bayes>
0

>  <dend_class_bayes>
0

>  <molprint_class_bayes>
0

>  <RF_canvas>
0

>  <DNN_canvas>
0

$$$$
3UDR_9069
  MOE2015           3D

 47 50  0  0  1  0  0  0  0  0999 V2000
   19.5790   12.6740   25.9490 C   0  0  0  0  0  0  0  0  0  0  0  0
   24.5690   10.4030   19.3550 C   0  0  0  0  0  0  0  0  0  0  0  0
   25.1090    9.6670   18.7780 H   0  0  0  0  0  0  0  0  0  0  0  0
   24.4420   11.6950   18.8710 C   0  0  0  0  0  0  0  0  0  0  0  0
   24.8610   11.9430   17.9070 H   0  0  0  0  0  0  0  0  0  0  0  0
   24.0120   10.0460   20.5690 C   0  0  0  0  0  0  0  0  0  0  0  0
   24.1050    9.0390   20.9490 H   0  0  0  0  0  0  0  0  0  0  0  0
   23.7930   12.6660   19.5940 C   0  0  0  0  0  0  0  0  0  0  0  0
   23.7200   13.6830   19.2370 H   0  0  0  0  0  0  0  0  0  0  0  0
   23.3370   11.0100   21.2780 C   0  0  0  0  0  0  0  0  0  0  0  0
   23.2420   12.2840   20.7890 C   0  0  0  0  0  0  0  0  0  0  0  0
   22.1300   12.3290   22.7430 C   0  0  0  0  0  0  0  0  0  0  0  0
   20.3630   10.3290   24.7130 C   0  0  0  0  0  0  0  0  0  0  0  0
   20.0310   12.5500   29.4760 C   0  0  0  0  0  0  0  0  0  0  0  0
   19.5790   13.2470   30.1810 H   0  0  0  0  0  0  0  0  0  0  0  0
   20.6460   11.8320   30.0190 H   0  0  0  0  0  0  0  0  0  0  0  0
   20.9080   13.3210   28.5170 C   0  0  0  0  0  0  0  0  0  0  0  0
   21.7390   13.7650   29.0650 H   0  0  0  0  0  0  0  0  0  0  0  0
   20.3210   14.1090   28.0460 H   0  0  0  0  0  0  0  0  0  0  0  0
   18.9380   11.8100   28.7510 C   0  0  0  0  0  0  0  0  0  0  0  0
   18.2570   12.5370   28.3100 H   0  0  0  0  0  0  0  0  0  0  0  0
   18.3970   11.1940   29.4690 H   0  0  0  0  0  0  0  0  0  0  0  0
   21.4510   12.3940   27.4490 C   0  0  0  0  0  0  0  0  0  0  0  0
   22.0870   11.6470   27.9250 H   0  0  0  0  0  0  0  0  0  0  0  0
   22.0430   12.9800   26.7460 H   0  0  0  0  0  0  0  0  0  0  0  0
   19.4730   10.9180   27.6530 C   0  0  0  0  0  0  0  0  0  0  0  0
   18.6330   10.4920   27.1040 H   0  0  0  0  0  0  0  0  0  0  0  0
   20.0570   10.1160   28.1040 H   0  0  0  0  0  0  0  0  0  0  0  0
   21.3850   10.0120   22.4940 C   0  0  0  0  0  0  0  0  0  0  0  0
   20.5060   10.6020   22.2340 H   0  0  0  0  0  0  0  0  0  0  0  0
   21.5260    9.2240   21.7550 H   0  0  0  0  0  0  0  0  0  0  0  0
   23.4660   10.3650   23.7110 C   0  0  0  0  0  0  0  0  0  0  0  0
   23.7040   11.1680   24.4090 H   0  0  0  0  0  0  0  0  0  0  0  0
   24.3890    9.9310   23.3270 H   0  0  0  0  0  0  0  0  0  0  0  0
   21.2320    9.4190   23.8740 C   0  0  3  0  0  0  0  0  0  0  0  0
   20.7440    8.4450   23.8940 H   0  0  0  0  0  0  0  0  0  0  0  0
   20.3540   11.6820   26.6850 C   0  0  0  0  0  0  0  0  0  0  0  0
   22.6100   10.8940   22.5640 C   0  0  3  0  0  0  0  0  0  0  0  0
   18.9720   13.4800   25.3740 N   0  0  0  0  0  0  0  0  0  0  0  0
   22.5340   13.0770   21.6550 N   0  0  0  0  0  0  0  0  0  0  0  0
   22.3380   14.0580   21.5180 H   0  0  0  0  0  0  0  0  0  0  0  0
   22.6380    9.3180   24.3840 N   0  3  0  0  0  0  0  0  0  0  0  0
   22.6490    9.4660   25.3830 H   0  0  0  0  0  0  0  0  0  0  0  0
   23.0110    8.4030   24.1750 H   0  0  0  0  0  0  0  0  0  0  0  0
   21.4630   12.7590   23.6810 O   0  0  0  0  0  0  0  0  0  0  0  0
   19.1640   10.5050   24.5110 O   0  0  0  0  0  0  0  0  0  0  0  0
   21.0470   10.7520   25.8030 O   0  0  0  0  0  0  0  0  0  0  0  0
  1 37  1  0  0  0  0
  1 39  3  0  0  0  0
  2  3  1  0  0  0  0
  2  4  2  0  0  0  0
  2  6  1  0  0  0  0
  4  5  1  0  0  0  0
  4  8  1  0  0  0  0
  6  7  1  0  0  0  0
  6 10  2  0  0  0  0
  8  9  1  0  0  0  0
  8 11  2  0  0  0  0
 10 11  1  0  0  0  0
 10 38  1  0  0  0  0
 11 40  1  0  0  0  0
 12 38  1  0  0  0  0
 12 40  1  0  0  0  0
 12 45  2  0  0  0  0
 13 35  1  0  0  0  0
 13 46  2  0  0  0  0
 13 47  1  0  0  0  0
 14 15  1  0  0  0  0
 14 16  1  0  0  0  0
 14 17  1  0  0  0  0
 14 20  1  0  0  0  0
 17 18  1  0  0  0  0
 17 19  1  0  0  0  0
 17 23  1  0  0  0  0
 20 21  1  0  0  0  0
 20 22  1  0  0  0  0
 20 26  1  0  0  0  0
 23 24  1  0  0  0  0
 23 25  1  0  0  0  0
 23 37  1  0  0  0  0
 26 27  1  0  0  0  0
 26 28  1  0  0  0  0
 26 37  1  0  0  0  0
 29 30  1  0  0  0  0
 29 31  1  0  0  0  0
 29 35  1  0  0  0  0
 29 38  1  0  0  0  0
 32 33  1  0  0  0  0
 32 34  1  0  0  0  0
 32 38  1  0  0  0  0
 32 42  1  0  0  0  0
 35 36  1  0  0  0  0
 35 42  1  0  0  0  0
 37 47  1  0  0  0  0
 40 41  1  0  0  0  0
 42 43  1  0  0  0  0
 42 44  1  0  0  0  0
M  CHG  1  42   1
M  END
>  <PARENT_CMPD_ID>
3UDR

>  <STANDARD_TYPE>
IC50

>  <RELATION>
=

>  <STANDARD_VALUE>
25.4

>  <STANDARD_UNITS>
uM

>  <COMPOUND_KEY>
14

>  <PUBMED_ID>
22468999

>  <JOURNAL>
J.Med.Chem.

>  <YEAR>
2012

>  <VOLUME>
55

>  <FIRST_PAGE>
9069

>  <Company>
Pfizer

>  <Resolution>
1.95

>  <idx>
176

>  <Model>
Train

>  <target>
4.5951662

>  <des_pred_mlr>
5.26335

>  <RF_Canvas>
5.1690459

>  <DNN_Canvas>
4.702651

>  <pred_CoMFA>
4.3385

>  <pred_COMSIA>
4.4986

>  <pred_abm5>
4.5453906

>  <pred_ff8>
5.4536424

>  <pred_gau6>
4.1900864

>  <CID>
BACE_176

>  <active>
0

>  <des_class_bayes>
0

>  <maacs_class_bayes>
0

>  <radial_class_bayes>
0

>  <dend_class_bayes>
0

>  <molprint_class_bayes>
0

>  <RF_canvas>
0

>  <DNN_canvas>
0

$$$$
3MSK_5329
  MOE2015           3D

 49 51  0  0  0  0  0  0  0  0999 V2000
   20.9210   12.8910   22.4240 C   0  0  0  0  0  0  0  0  0  0  0  0
   21.4580   11.6870   22.9010 C   0  0  0  0  0  0  0  0  0  0  0  0
   21.1610   10.4070   22.1550 C   0  0  0  0  0  0  0  0  0  0  0  0
   20.3560   10.4360   21.0300 C   0  0  0  0  0  0  0  0  0  0  0  0
   19.8350   11.6810   20.6190 C   0  0  0  0  0  0  0  0  0  0  0  0
   20.1210   12.8840   21.2770 C   0  0  0  0  0  0  0  0  0  0  0  0
   18.8190   11.6860   19.1520 Cl  0  0  0  0  0  0  0  0  0  0  0  0
   22.2330   11.3820   23.9740 N   0  0  0  0  0  0  0  0  0  0  0  0
   22.4060   10.0210   23.8630 C   0  0  0  0  0  0  0  0  0  0  0  0
   21.7900    9.4120   22.8030 N   0  0  0  0  0  0  0  0  0  0  0  0
   23.1600    9.2530   24.7030 N   0  0  0  0  0  0  0  0  0  0  0  0
   22.7530   12.3830   24.9390 C   0  0  0  0  0  0  0  0  0  0  0  0
   24.2210   12.6880   24.6350 C   0  0  0  0  0  0  0  0  0  0  0  0
   24.6480   12.4770   23.1890 C   0  0  0  0  0  0  0  0  0  0  0  0
   24.2690   13.7360   22.3900 C   0  0  0  0  0  0  0  0  0  0  0  0
   24.1830   14.7960   23.0150 O   0  0  0  0  0  0  0  0  0  0  0  0
   24.0640   13.6790   21.0400 N   0  0  0  0  0  0  0  0  0  0  0  0
   23.6850   14.8240   20.1960 C   0  0  0  0  0  0  0  0  0  0  0  0
   24.1690   12.3880   20.3570 C   0  0  0  0  0  0  0  0  0  0  0  0
   24.0370   12.6050   18.8560 C   0  0  0  0  0  0  0  0  0  0  0  0
   23.9360   11.2190   18.2410 C   0  0  0  0  0  0  0  0  0  0  0  0
   25.0620   10.3000   18.7020 C   0  0  0  0  0  0  0  0  0  0  0  0
   25.3940   10.3610   20.2040 C   0  0  0  0  0  0  0  0  0  0  0  0
   25.5490   11.8100   20.6320 C   0  0  0  0  0  0  0  0  0  0  0  0
   21.1240   13.8180   22.9390 H   0  0  0  0  0  0  0  0  0  0  0  0
   20.1330    9.5320   20.4830 H   0  0  0  0  0  0  0  0  0  0  0  0
   19.7210   13.8120   20.8960 H   0  0  0  0  0  0  0  0  0  0  0  0
   23.2520    8.2610   24.5340 H   0  0  0  0  0  0  0  0  0  0  0  0
   23.6260    9.6760   25.4930 H   0  0  0  0  0  0  0  0  0  0  0  0
   22.6690   11.9870   25.9510 H   0  0  0  0  0  0  0  0  0  0  0  0
   22.1690   13.3000   24.8580 H   0  0  0  0  0  0  0  0  0  0  0  0
   24.8350   12.0440   25.2640 H   0  0  0  0  0  0  0  0  0  0  0  0
   24.4080   13.7310   24.8920 H   0  0  0  0  0  0  0  0  0  0  0  0
   24.1350   11.6090   22.7750 H   0  0  0  0  0  0  0  0  0  0  0  0
   25.7260   12.3200   23.1410 H   0  0  0  0  0  0  0  0  0  0  0  0
   23.6380   15.7260   20.8070 H   0  0  0  0  0  0  0  0  0  0  0  0
   22.7090   14.6380   19.7480 H   0  0  0  0  0  0  0  0  0  0  0  0
   24.4270   14.9570   19.4090 H   0  0  0  0  0  0  0  0  0  0  0  0
   23.3870   11.7160   20.7110 H   0  0  0  0  0  0  0  0  0  0  0  0
   24.9120   13.1280   18.4700 H   0  0  0  0  0  0  0  0  0  0  0  0
   23.1410   13.1840   18.6340 H   0  0  0  0  0  0  0  0  0  0  0  0
   23.9810   11.3120   17.1560 H   0  0  0  0  0  0  0  0  0  0  0  0
   22.9820   10.7760   18.5280 H   0  0  0  0  0  0  0  0  0  0  0  0
   25.9620   10.5670   18.1480 H   0  0  0  0  0  0  0  0  0  0  0  0
   24.7790    9.2750   18.4620 H   0  0  0  0  0  0  0  0  0  0  0  0
   26.3250    9.8250   20.3920 H   0  0  0  0  0  0  0  0  0  0  0  0
   24.5870    9.8990   20.7730 H   0  0  0  0  0  0  0  0  0  0  0  0
   25.8020   11.8830   21.6900 H   0  0  0  0  0  0  0  0  0  0  0  0
   26.3120   12.3150   20.0400 H   0  0  0  0  0  0  0  0  0  0  0  0
  1  2  1  0  0  0  0
  1  6  2  0  0  0  0
  1 25  1  0  0  0  0
  2  3  2  0  0  0  0
  2  8  1  0  0  0  0
  3  4  1  0  0  0  0
  3 10  1  0  0  0  0
  4  5  2  0  0  0  0
  4 26  1  0  0  0  0
  5  6  1  0  0  0  0
  5  7  1  0  0  0  0
  6 27  1  0  0  0  0
  8  9  1  0  0  0  0
  8 12  1  0  0  0  0
  9 10  2  0  0  0  0
  9 11  1  0  0  0  0
 11 28  1  0  0  0  0
 11 29  1  0  0  0  0
 12 13  1  0  0  0  0
 12 30  1  0  0  0  0
 12 31  1  0  0  0  0
 13 14  1  0  0  0  0
 13 32  1  0  0  0  0
 13 33  1  0  0  0  0
 14 15  1  0  0  0  0
 14 34  1  0  0  0  0
 14 35  1  0  0  0  0
 15 16  2  0  0  0  0
 15 17  1  0  0  0  0
 17 18  1  0  0  0  0
 17 19  1  0  0  0  0
 18 36  1  0  0  0  0
 18 37  1  0  0  0  0
 18 38  1  0  0  0  0
 19 20  1  0  0  0  0
 19 24  1  0  0  0  0
 19 39  1  0  0  0  0
 20 21  1  0  0  0  0
 20 40  1  0  0  0  0
 20 41  1  0  0  0  0
 21 22  1  0  0  0  0
 21 42  1  0  0  0  0
 21 43  1  0  0  0  0
 22 23  1  0  0  0  0
 22 44  1  0  0  0  0
 22 45  1  0  0  0  0
 23 24  1  0  0  0  0
 23 46  1  0  0  0  0
 23 47  1  0  0  0  0
 24 48  1  0  0  0  0
 24 49  1  0  0  0  0
M  END
>  <PARENT_CMPD_ID>
3MSK

>  <STANDARD_TYPE>
IC50

>  <RELATION>
=

>  <STANDARD_VALUE>
26

>  <STANDARD_UNITS>
uM

>  <COMPOUND_KEY>
12b

>  <PUBMED_ID>
20656487

>  <JOURNAL>
Bioorg.Med.Chem.Lett.

>  <YEAR>
2010

>  <VOLUME>
20

>  <FIRST_PAGE>
5329

>  <Company>
Evotec

>  <Resolution>
2

>  <idx>
177

>  <Model>
Train

>  <target>
4.5850267

>  <des_pred_mlr>
5.6122799

>  <RF_Canvas>
4.7439237

>  <DNN_Canvas>
4.8449378

>  <pred_CoMFA>
5.2667999

>  <pred_COMSIA>
4.7923002

>  <pred_abm5>
4.9959993

>  <pred_ff8>
4.8139129

>  <pred_gau6>
4.5783997

>  <CID>
BACE_177

>  <active>
0

>  <des_class_bayes>
0

>  <maacs_class_bayes>
0

>  <radial_class_bayes>
0

>  <dend_class_bayes>
0

>  <molprint_class_bayes>
0

>  <RF_canvas>
0

>  <DNN_canvas>
0

$$$$
4I11_2181
  MOE2015           3D

 46 48  0  0  1  0  0  0  0  0999 V2000
   28.3210   13.4030   25.2300 O   0  0  0  0  0  0  0  0  0  0  0  0
   27.6360   13.6780   24.2100 C   0  0  0  0  0  0  0  0  0  0  0  0
   26.9470   14.7190   24.1290 O   0  5  0  0  0  0  0  0  0  0  0  0
   27.6880   12.8280   22.9770 C   0  0  3  0  0  0  0  0  0  0  0  0
   29.0850   12.7860   22.3420 C   0  0  0  0  0  0  0  0  0  0  0  0
   29.0480   11.6450   21.3180 C   0  0  0  0  0  0  0  0  0  0  0  0
   29.0060   11.9180   19.9320 C   0  0  0  0  0  0  0  0  0  0  0  0
   28.9290   10.8570   18.9950 C   0  0  0  0  0  0  0  0  0  0  0  0
   28.9260    9.5330   19.4450 C   0  0  0  0  0  0  0  0  0  0  0  0
   28.9640    9.2590   20.8350 C   0  0  0  0  0  0  0  0  0  0  0  0
   29.0250   10.3160   21.7550 C   0  0  0  0  0  0  0  0  0  0  0  0
   26.7360   13.3770   22.0160 N   0  3  0  0  0  0  0  0  0  0  0  0
   25.7830   12.6740   21.3730 C   0  0  0  0  0  0  0  0  0  0  0  0
   25.5840   11.4110   21.5650 N   0  0  0  0  0  0  0  0  0  0  0  0
   24.6030   10.6600   20.7810 C   0  0  0  0  0  0  0  0  0  0  0  0
   25.1580   10.3700   19.3600 C   0  0  0  0  0  0  0  0  0  0  0  0
   24.2700    9.3400   21.4460 C   0  0  0  0  0  0  0  0  0  0  0  0
   23.2940   11.4550   20.5960 C   0  0  0  0  0  0  0  0  0  0  0  0
   23.6380   12.7960   19.9680 C   0  0  0  0  0  0  0  0  0  0  0  0
   24.9230   13.4160   20.3710 C   0  0  0  0  0  0  0  0  0  0  0  0
   25.2730   14.6690   19.8270 C   0  0  0  0  0  0  0  0  0  0  0  0
   24.4020   15.3080   18.9180 C   0  0  0  0  0  0  0  0  0  0  0  0
   23.1880   14.7170   18.5410 C   0  0  0  0  0  0  0  0  0  0  0  0
   22.8010   13.4570   19.0620 C   0  0  0  0  0  0  0  0  0  0  0  0
   27.4380   11.8040   23.2550 H   0  0  0  0  0  0  0  0  0  0  0  0
   29.8410   12.5890   23.1020 H   0  0  0  0  0  0  0  0  0  0  0  0
   29.3050   13.7320   21.8470 H   0  0  0  0  0  0  0  0  0  0  0  0
   29.0330   12.9400   19.5850 H   0  0  0  0  0  0  0  0  0  0  0  0
   28.8730   11.0700   17.9380 H   0  0  0  0  0  0  0  0  0  0  0  0
   28.8950    8.7200   18.7340 H   0  0  0  0  0  0  0  0  0  0  0  0
   28.9460    8.2380   21.1850 H   0  0  0  0  0  0  0  0  0  0  0  0
   29.0550   10.1020   22.8130 H   0  0  0  0  0  0  0  0  0  0  0  0
   26.7970   14.3650   21.8170 H   0  0  0  0  0  0  0  0  0  0  0  0
   26.1190   10.9310   22.2740 H   0  0  0  0  0  0  0  0  0  0  0  0
   26.0880    9.8070   19.4410 H   0  0  0  0  0  0  0  0  0  0  0  0
   25.3470   11.3120   18.8450 H   0  0  0  0  0  0  0  0  0  0  0  0
   24.4290    9.7880   18.7970 H   0  0  0  0  0  0  0  0  0  0  0  0
   25.1840    8.7630   21.5860 H   0  0  0  0  0  0  0  0  0  0  0  0
   23.5790    8.7800   20.8160 H   0  0  0  0  0  0  0  0  0  0  0  0
   23.8070    9.5280   22.4150 H   0  0  0  0  0  0  0  0  0  0  0  0
   22.8180   11.6120   21.5640 H   0  0  0  0  0  0  0  0  0  0  0  0
   22.6170   10.9040   19.9430 H   0  0  0  0  0  0  0  0  0  0  0  0
   26.2050   15.1390   20.1050 H   0  0  0  0  0  0  0  0  0  0  0  0
   24.6760   16.2680   18.5060 H   0  0  0  0  0  0  0  0  0  0  0  0
   22.5400   15.2280   17.8450 H   0  0  0  0  0  0  0  0  0  0  0  0
   21.8650   13.0090   18.7610 H   0  0  0  0  0  0  0  0  0  0  0  0
  1  2  2  0  0  0  0
  2  3  1  0  0  0  0
  2  4  1  0  0  0  0
  4  5  1  0  0  0  0
  4 12  1  0  0  0  0
  4 25  1  0  0  0  0
  5  6  1  0  0  0  0
  5 26  1  0  0  0  0
  5 27  1  0  0  0  0
  6  7  1  0  0  0  0
  6 11  2  0  0  0  0
  7  8  2  0  0  0  0
  7 28  1  0  0  0  0
  8  9  1  0  0  0  0
  8 29  1  0  0  0  0
  9 10  2  0  0  0  0
  9 30  1  0  0  0  0
 10 11  1  0  0  0  0
 10 31  1  0  0  0  0
 11 32  1  0  0  0  0
 12 13  2  0  0  0  0
 12 33  1  0  0  0  0
 13 14  1  0  0  0  0
 13 20  1  0  0  0  0
 14 15  1  0  0  0  0
 14 34  1  0  0  0  0
 15 16  1  0  0  0  0
 15 17  1  0  0  0  0
 15 18  1  0  0  0  0
 16 35  1  0  0  0  0
 16 36  1  0  0  0  0
 16 37  1  0  0  0  0
 17 38  1  0  0  0  0
 17 39  1  0  0  0  0
 17 40  1  0  0  0  0
 18 19  1  0  0  0  0
 18 41  1  0  0  0  0
 18 42  1  0  0  0  0
 19 20  1  0  0  0  0
 19 24  2  0  0  0  0
 20 21  2  0  0  0  0
 21 22  1  0  0  0  0
 21 43  1  0  0  0  0
 22 23  2  0  0  0  0
 22 44  1  0  0  0  0
 23 24  1  0  0  0  0
 23 45  1  0  0  0  0
 24 46  1  0  0  0  0
M  CHG  1   3  -1
M  CHG  1  12   1
M  END
>  <PARENT_CMPD_ID>
4I11

>  <STANDARD_TYPE>
IC50

>  <RELATION>
=

>  <STANDARD_VALUE>
27.200001

>  <STANDARD_UNITS>
uM

>  <COMPOUND_KEY>
1

>  <PUBMED_ID>
23465612

>  <JOURNAL>
Bioorg.Med.Chem.Lett.

>  <YEAR>
2013

>  <VOLUME>
23

>  <FIRST_PAGE>
2181

>  <Company>
Elan

>  <Resolution>
1.89

>  <idx>
178

>  <Model>
Train

>  <target>
4.5654311

>  <des_pred_mlr>
5.2051101

>  <RF_Canvas>
5.163012

>  <DNN_Canvas>
4.9281726

>  <pred_CoMFA>
4.9773998

>  <pred_COMSIA>
5.4772

>  <pred_abm5>
5.2441173

>  <pred_ff8>
4.1324058

>  <pred_gau6>
5.1167526

>  <CID>
BACE_178

>  <active>
0

>  <des_class_bayes>
0

>  <maacs_class_bayes>
0

>  <radial_class_bayes>
0

>  <dend_class_bayes>
0

>  <molprint_class_bayes>
0

>  <RF_canvas>
0

>  <DNN_canvas>
0

$$$$
4JOO_3379
  MOE2015           3D

 36 38  0  0  1  0  0  0  0  0999 V2000
   22.8590   10.7960   20.6360 C   0  0  0  0  0  0  0  0  0  0  0  0
   22.3620   10.9660   19.3200 C   0  0  0  0  0  0  0  0  0  0  0  0
   23.2610   10.9950   18.2340 C   0  0  0  0  0  0  0  0  0  0  0  0
   24.6510   10.8450   18.4420 C   0  0  0  0  0  0  0  0  0  0  0  0
   25.1480   10.6670   19.7530 C   0  0  0  0  0  0  0  0  0  0  0  0
   24.2470   10.6420   20.8460 C   0  0  0  0  0  0  0  0  0  0  0  0
   21.8910   10.7870   21.8240 C   0  0  3  0  0  0  0  0  0  0  0  0
   20.4120   11.0130   21.4360 C   0  0  0  0  0  0  0  0  0  0  0  0
   20.0640   10.5240   20.0090 C   0  0  0  0  0  0  0  0  0  0  0  0
   21.0050   11.1060   19.1030 O   0  0  0  0  0  0  0  0  0  0  0  0
   22.3500   11.8780   22.8050 C   0  0  0  0  0  0  0  0  0  0  0  0
   22.7060   11.2690   23.9970 N   0  0  0  0  0  0  0  0  0  0  0  0
   22.5140    9.9030   23.8710 C   0  0  0  0  0  0  0  0  0  0  0  0
   22.0370    9.5820   22.6600 N   0  0  0  0  0  0  0  0  0  0  0  0
   22.4280   13.0880   22.5910 O   0  0  0  0  0  0  0  0  0  0  0  0
   22.7490    8.9990   24.8310 N   0  0  0  0  0  0  0  0  0  0  0  0
   23.2140   11.9720   25.1850 C   0  0  0  0  0  0  0  0  0  0  0  0
   27.0080   10.4650   20.0520 Br  0  0  0  0  0  0  0  0  0  0  0  0
   20.0820    8.9720   19.9370 C   0  0  0  0  0  0  0  0  0  0  0  0
   18.6730   11.0350   19.5870 C   0  0  0  0  0  0  0  0  0  0  0  0
   22.8830   11.1330   17.2320 H   0  0  0  0  0  0  0  0  0  0  0  0
   25.3300   10.8660   17.6030 H   0  0  0  0  0  0  0  0  0  0  0  0
   24.6250   10.5040   21.8480 H   0  0  0  0  0  0  0  0  0  0  0  0
   20.1990   12.0800   21.4960 H   0  0  0  0  0  0  0  0  0  0  0  0
   19.7830   10.4770   22.1470 H   0  0  0  0  0  0  0  0  0  0  0  0
   22.5660    8.0210   24.6590 H   0  0  0  0  0  0  0  0  0  0  0  0
   23.1090    9.2960   25.7270 H   0  0  0  0  0  0  0  0  0  0  0  0
   23.2550   13.0420   24.9840 H   0  0  0  0  0  0  0  0  0  0  0  0
   24.2140   11.6080   25.4230 H   0  0  0  0  0  0  0  0  0  0  0  0
   22.5500   11.7860   26.0290 H   0  0  0  0  0  0  0  0  0  0  0  0
   21.0650    8.6060   20.2350 H   0  0  0  0  0  0  0  0  0  0  0  0
   19.8690    8.6530   18.9170 H   0  0  0  0  0  0  0  0  0  0  0  0
   19.3250    8.5680   20.6090 H   0  0  0  0  0  0  0  0  0  0  0  0
   18.6560   12.1240   19.6360 H   0  0  0  0  0  0  0  0  0  0  0  0
   17.9170   10.6290   20.2590 H   0  0  0  0  0  0  0  0  0  0  0  0
   18.4620   10.7140   18.5670 H   0  0  0  0  0  0  0  0  0  0  0  0
  1  2  1  0  0  0  0
  1  6  2  0  0  0  0
  1  7  1  0  0  0  0
  2  3  2  0  0  0  0
  2 10  1  0  0  0  0
  3  4  1  0  0  0  0
  3 21  1  0  0  0  0
  4  5  2  0  0  0  0
  4 22  1  0  0  0  0
  5  6  1  0  0  0  0
  5 18  1  0  0  0  0
  6 23  1  0  0  0  0
  7  8  1  0  0  0  0
  7 11  1  0  0  0  0
  7 14  1  0  0  0  0
  8  9  1  0  0  0  0
  8 24  1  0  0  0  0
  8 25  1  0  0  0  0
  9 10  1  0  0  0  0
  9 19  1  0  0  0  0
  9 20  1  0  0  0  0
 11 12  1  0  0  0  0
 11 15  2  0  0  0  0
 12 13  1  0  0  0  0
 12 17  1  0  0  0  0
 13 14  2  0  0  0  0
 13 16  1  0  0  0  0
 16 26  1  0  0  0  0
 16 27  1  0  0  0  0
 17 28  1  0  0  0  0
 17 29  1  0  0  0  0
 17 30  1  0  0  0  0
 19 31  1  0  0  0  0
 19 32  1  0  0  0  0
 19 33  1  0  0  0  0
 20 34  1  0  0  0  0
 20 35  1  0  0  0  0
 20 36  1  0  0  0  0
M  END
>  <PARENT_CMPD_ID>
4JOO

>  <STANDARD_TYPE>
IC50

>  <RELATION>
=

>  <STANDARD_VALUE>
36.830002

>  <STANDARD_UNITS>
uM

>  <COMPOUND_KEY>
1a

>  <PUBMED_ID>
23537249

>  <JOURNAL>
J.Med.Chem.

>  <YEAR>
2013

>  <VOLUME>
56

>  <FIRST_PAGE>
3379

>  <Company>
Array

>  <Resolution>
1.8

>  <idx>
179

>  <Model>
Train

>  <target>
4.4337983

>  <des_pred_mlr>
3.79159

>  <RF_Canvas>
4.6531439

>  <DNN_Canvas>
4.7999563

>  <pred_CoMFA>
5.4647002

>  <pred_COMSIA>
5.48

>  <pred_abm5>
5.5249515

>  <pred_ff8>
5.5598264

>  <pred_gau6>
5.9572897

>  <CID>
BACE_179

>  <active>
0

>  <des_class_bayes>
0

>  <maacs_class_bayes>
0

>  <radial_class_bayes>
0

>  <dend_class_bayes>
0

>  <molprint_class_bayes>
0

>  <RF_canvas>
0

>  <DNN_canvas>
0

$$$$
3IGB_6314
  MOE2015           3D

 41 44  0  0  0  0  0  0  0  0999 V2000
   24.9880   11.0670   18.4340 C   0  0  0  0  0  0  0  0  0  0  0  0
   22.4220   13.0440   22.5530 N   0  0  0  0  0  0  0  0  0  0  0  0
   23.6750   11.5120   18.3160 C   0  0  0  0  0  0  0  0  0  0  0  0
   22.6990   11.1430   23.9850 N   0  0  0  0  0  0  0  0  0  0  0  0
   22.7910   11.3740   19.3890 C   0  0  0  0  0  0  0  0  0  0  0  0
   22.5080    9.4110   22.5730 N   0  3  0  0  0  0  0  0  0  0  0  0
   23.1990   10.7850   20.6060 C   0  0  0  0  0  0  0  0  0  0  0  0
   22.7910    8.9470   24.8860 N   0  0  0  0  0  0  0  0  0  0  0  0
   24.5300   10.3440   20.7000 C   0  0  0  0  0  0  0  0  0  0  0  0
   25.4090   10.4840   19.6250 C   0  0  0  0  0  0  0  0  0  0  0  0
   22.1860   10.6660   21.7570 C   0  0  0  0  0  0  0  0  0  0  0  0
   22.3440   11.7840   22.8290 C   0  0  0  0  0  0  0  0  0  0  0  0
   22.8040   13.9160   23.6850 C   0  0  0  0  0  0  0  0  0  0  0  0
   22.5340   13.2760   25.0570 C   0  0  0  0  0  0  0  0  0  0  0  0
   23.2020   11.9080   25.1100 C   0  0  0  0  0  0  0  0  0  0  0  0
   22.6700    9.7840   23.8200 C   0  0  0  0  0  0  0  0  0  0  0  0
   20.7290   10.5600   21.2810 C   0  0  0  0  0  0  0  0  0  0  0  0
   20.3260    9.4710   20.4910 C   0  0  0  0  0  0  0  0  0  0  0  0
   19.0110    9.3420   20.0470 C   0  0  0  0  0  0  0  0  0  0  0  0
   18.0750   10.3120   20.3830 C   0  0  0  0  0  0  0  0  0  0  0  0
   18.4520   11.3950   21.1690 C   0  0  0  0  0  0  0  0  0  0  0  0
   19.7690   11.5220   21.6120 C   0  0  0  0  0  0  0  0  0  0  0  0
   25.6750   11.1730   17.6070 H   0  0  0  0  0  0  0  0  0  0  0  0
   23.3390   11.9640   17.3950 H   0  0  0  0  0  0  0  0  0  0  0  0
   21.7750   11.7250   19.2860 H   0  0  0  0  0  0  0  0  0  0  0  0
   22.7590    7.9470   24.7490 H   0  0  0  0  0  0  0  0  0  0  0  0
   22.9130    9.3260   25.8140 H   0  0  0  0  0  0  0  0  0  0  0  0
   24.8770    9.8910   21.6170 H   0  0  0  0  0  0  0  0  0  0  0  0
   26.4270   10.1360   19.7190 H   0  0  0  0  0  0  0  0  0  0  0  0
   22.2350   14.8430   23.6160 H   0  0  0  0  0  0  0  0  0  0  0  0
   23.8690   14.1370   23.6090 H   0  0  0  0  0  0  0  0  0  0  0  0
   21.4600   13.1630   25.2020 H   0  0  0  0  0  0  0  0  0  0  0  0
   22.9420   13.9120   25.8430 H   0  0  0  0  0  0  0  0  0  0  0  0
   24.2840   12.0170   25.0340 H   0  0  0  0  0  0  0  0  0  0  0  0
   22.9520   11.4060   26.0450 H   0  0  0  0  0  0  0  0  0  0  0  0
   21.0510    8.7170   20.2220 H   0  0  0  0  0  0  0  0  0  0  0  0
   18.7220    8.4930   19.4450 H   0  0  0  0  0  0  0  0  0  0  0  0
   17.0570   10.2250   20.0340 H   0  0  0  0  0  0  0  0  0  0  0  0
   17.7210   12.1430   21.4380 H   0  0  0  0  0  0  0  0  0  0  0  0
   20.0500   12.3720   22.2170 H   0  0  0  0  0  0  0  0  0  0  0  0
   22.5820    8.4690   22.2160 H   0  0  0  0  0  0  0  0  0  0  0  0
  1  3  1  0  0  0  0
  1 10  2  0  0  0  0
  1 23  1  0  0  0  0
  2 12  2  0  0  0  0
  2 13  1  0  0  0  0
  3  5  2  0  0  0  0
  3 24  1  0  0  0  0
  4 12  1  0  0  0  0
  4 15  1  0  0  0  0
  4 16  1  0  0  0  0
  5  7  1  0  0  0  0
  5 25  1  0  0  0  0
  6 11  1  0  0  0  0
  6 16  2  0  0  0  0
  6 41  1  0  0  0  0
  7  9  2  0  0  0  0
  7 11  1  0  0  0  0
  8 16  1  0  0  0  0
  8 26  1  0  0  0  0
  8 27  1  0  0  0  0
  9 10  1  0  0  0  0
  9 28  1  0  0  0  0
 10 29  1  0  0  0  0
 11 12  1  0  0  0  0
 11 17  1  0  0  0  0
 13 14  1  0  0  0  0
 13 30  1  0  0  0  0
 13 31  1  0  0  0  0
 14 15  1  0  0  0  0
 14 32  1  0  0  0  0
 14 33  1  0  0  0  0
 15 34  1  0  0  0  0
 15 35  1  0  0  0  0
 17 18  1  0  0  0  0
 17 22  2  0  0  0  0
 18 19  2  0  0  0  0
 18 36  1  0  0  0  0
 19 20  1  0  0  0  0
 19 37  1  0  0  0  0
 20 21  2  0  0  0  0
 20 38  1  0  0  0  0
 21 22  1  0  0  0  0
 21 39  1  0  0  0  0
 22 40  1  0  0  0  0
M  CHG  1   6   1
M  END
>  <PARENT_CMPD_ID>
3IGB

>  <STANDARD_TYPE>
IC50

>  <RELATION>
=

>  <STANDARD_VALUE>
38

>  <STANDARD_UNITS>
uM

>  <COMPOUND_KEY>
3

>  <PUBMED_ID>
19757823

>  <JOURNAL>
J.Med.Chem.

>  <YEAR>
2009

>  <VOLUME>
52

>  <FIRST_PAGE>
6314

>  <Company>
Wyeth

>  <Resolution>
2.24

>  <idx>
180

>  <Model>
Train

>  <target>
4.4202166

>  <des_pred_mlr>
3.4357901

>  <RF_Canvas>
4.5833888

>  <DNN_Canvas>
4.6029696

>  <pred_CoMFA>
4.9505

>  <pred_COMSIA>
5.4468999

>  <pred_abm5>
5.624445

>  <pred_ff8>
4.8771238

>  <pred_gau6>
5.5392604

>  <CID>
BACE_180

>  <active>
0

>  <des_class_bayes>
0

>  <maacs_class_bayes>
0

>  <radial_class_bayes>
0

>  <dend_class_bayes>
0

>  <molprint_class_bayes>
0

>  <RF_canvas>
0

>  <DNN_canvas>
0

$$$$
2OHS_1124
  MOE2015           3D

 41 43  0  0  0  0  0  0  0  0999 V2000
   29.9010    9.4470   23.2920 C   0  0  0  0  0  0  0  0  0  0  0  0
   28.7700    9.2550   22.4250 O   0  0  0  0  0  0  0  0  0  0  0  0
   28.4750   10.2540   21.5320 C   0  0  0  0  0  0  0  0  0  0  0  0
   29.3140   11.3020   21.1730 C   0  0  0  0  0  0  0  0  0  0  0  0
   28.9730   12.2610   20.3090 N   0  0  0  0  0  0  0  0  0  0  0  0
   27.7350   12.2100   19.8020 C   0  0  0  0  0  0  0  0  0  0  0  0
   26.8100   11.2070   20.0920 C   0  0  0  0  0  0  0  0  0  0  0  0
   27.1950   10.2250   20.9960 C   0  0  0  0  0  0  0  0  0  0  0  0
   25.4370   11.2430   19.5120 C   0  0  0  0  0  0  0  0  0  0  0  0
   25.2300   11.7750   18.2440 C   0  0  0  0  0  0  0  0  0  0  0  0
   23.9600   11.8690   17.7210 C   0  0  0  0  0  0  0  0  0  0  0  0
   22.8700   11.4510   18.4580 C   0  0  0  0  0  0  0  0  0  0  0  0
   23.0330   10.9390   19.7370 C   0  0  0  0  0  0  0  0  0  0  0  0
   21.8210   10.4990   20.5250 C   0  0  0  0  0  0  0  0  0  0  0  0
   22.0650   10.1490   21.9230 N   0  0  0  0  0  0  0  0  0  0  0  0
   22.3270   11.0900   22.9770 C   0  0  0  0  0  0  0  0  0  0  0  0
   22.3950   12.4560   22.7210 C   0  0  0  0  0  0  0  0  0  0  0  0
   22.6760   13.3390   23.7450 C   0  0  0  0  0  0  0  0  0  0  0  0
   22.8590   12.8650   25.0310 C   0  0  0  0  0  0  0  0  0  0  0  0
   22.7930   11.5490   25.3030 N   0  0  0  0  0  0  0  0  0  0  0  0
   22.5400   10.6370   24.3110 C   0  0  0  0  0  0  0  0  0  0  0  0
   22.4710    9.3410   24.6570 N   0  0  0  0  0  0  0  0  0  0  0  0
   24.3260   10.8430   20.2600 C   0  0  0  0  0  0  0  0  0  0  0  0
   29.8910    8.6910   24.0770 H   0  0  0  0  0  0  0  0  0  0  0  0
   30.8200    9.3560   22.7140 H   0  0  0  0  0  0  0  0  0  0  0  0
   29.8530   10.4390   23.7430 H   0  0  0  0  0  0  0  0  0  0  0  0
   30.3170   11.3440   21.5710 H   0  0  0  0  0  0  0  0  0  0  0  0
   27.4690   12.9960   19.1120 H   0  0  0  0  0  0  0  0  0  0  0  0
   26.5070    9.4390   21.2720 H   0  0  0  0  0  0  0  0  0  0  0  0
   26.0770   12.1000   17.6580 H   0  0  0  0  0  0  0  0  0  0  0  0
   23.8170   12.2560   16.7250 H   0  0  0  0  0  0  0  0  0  0  0  0
   21.8790   11.5210   18.0350 H   0  0  0  0  0  0  0  0  0  0  0  0
   21.0800   11.2980   20.4960 H   0  0  0  0  0  0  0  0  0  0  0  0
   21.3800    9.6370   20.0300 H   0  0  0  0  0  0  0  0  0  0  0  0
   22.0490    9.2110   22.1360 H   0  0  0  0  0  0  0  0  0  0  0  0
   22.2540   12.8210   21.7180 H   0  0  0  0  0  0  0  0  0  0  0  0
   22.7260   14.4000   23.5470 H   0  0  0  0  0  0  0  0  0  0  0  0
   23.0640   13.5500   25.8390 H   0  0  0  0  0  0  0  0  0  0  0  0
   22.5320    9.0960   25.5840 H   0  0  0  0  0  0  0  0  0  0  0  0
   22.3410    8.6760   23.9790 H   0  0  0  0  0  0  0  0  0  0  0  0
   24.4680   10.4600   21.2590 H   0  0  0  0  0  0  0  0  0  0  0  0
  1  2  1  0  0  0  0
  1 24  1  0  0  0  0
  1 25  1  0  0  0  0
  1 26  1  0  0  0  0
  2  3  1  0  0  0  0
  3  4  1  0  0  0  0
  3  8  2  0  0  0  0
  4  5  2  0  0  0  0
  4 27  1  0  0  0  0
  5  6  1  0  0  0  0
  6  7  2  0  0  0  0
  6 28  1  0  0  0  0
  7  8  1  0  0  0  0
  7  9  1  0  0  0  0
  8 29  1  0  0  0  0
  9 10  1  0  0  0  0
  9 23  2  0  0  0  0
 10 11  2  0  0  0  0
 10 30  1  0  0  0  0
 11 12  1  0  0  0  0
 11 31  1  0  0  0  0
 12 13  2  0  0  0  0
 12 32  1  0  0  0  0
 13 14  1  0  0  0  0
 13 23  1  0  0  0  0
 14 15  1  0  0  0  0
 14 33  1  0  0  0  0
 14 34  1  0  0  0  0
 15 16  1  0  0  0  0
 15 35  1  0  0  0  0
 16 17  1  0  0  0  0
 16 21  2  0  0  0  0
 17 18  2  0  0  0  0
 17 36  1  0  0  0  0
 18 19  1  0  0  0  0
 18 37  1  0  0  0  0
 19 20  2  0  0  0  0
 19 38  1  0  0  0  0
 20 21  1  0  0  0  0
 21 22  1  0  0  0  0
 22 39  1  0  0  0  0
 22 40  1  0  0  0  0
 23 41  1  0  0  0  0
M  END
>  <PARENT_CMPD_ID>
2OHS

>  <STANDARD_TYPE>
IC50

>  <RELATION>
=

>  <STANDARD_VALUE>
40

>  <STANDARD_UNITS>
uM

>  <COMPOUND_KEY>
6b

>  <PUBMED_ID>
17315857

>  <JOURNAL>
J.Med.Chem.

>  <YEAR>
2007

>  <VOLUME>
50

>  <FIRST_PAGE>
1124

>  <Company>
Astex

>  <Resolution>
2.45

>  <idx>
181

>  <Model>
Train

>  <target>
4.3979402

>  <des_pred_mlr>
5.7848802

>  <RF_Canvas>
4.4322257

>  <DNN_Canvas>
4.6823983

>  <pred_CoMFA>
4.9095998

>  <pred_COMSIA>
5.1669998

>  <pred_abm5>
4.4818106

>  <pred_ff8>
4.4432569

>  <pred_gau6>
4.4150677

>  <CID>
BACE_181

>  <active>
0

>  <des_class_bayes>
0

>  <maacs_class_bayes>
0

>  <radial_class_bayes>
0

>  <dend_class_bayes>
0

>  <molprint_class_bayes>
0

>  <RF_canvas>
0

>  <DNN_canvas>
0

$$$$
4BEK_4239
  MOE2015           3D

 32 33  0  0  1  0  0  0  0  0999 V2000
   22.9890    9.0450   24.9900 N   0  0  0  0  0  0  0  0  0  0  0  0
   22.4580    9.9820   24.1820 C   0  0  0  0  0  0  0  0  0  0  0  0
   21.8150    9.5600   23.1720 N   0  0  0  0  0  0  0  0  0  0  0  0
   22.6970   11.6250   24.5410 S   0  0  0  0  0  0  0  0  0  0  0  0
   22.0510   12.5170   23.1620 C   0  0  0  0  0  0  0  0  0  0  0  0
   20.9000   11.7400   22.5320 C   0  0  0  0  0  0  0  0  0  0  0  0
   21.4100   10.3910   22.0440 C   0  0  3  0  0  0  0  0  0  0  0  0
   20.3230    9.6580   21.2650 C   0  0  0  0  0  0  0  0  0  0  0  0
   22.5690   10.6260   21.1180 C   0  0  0  0  0  0  0  0  0  0  0  0
   22.3510   11.2850   19.9040 C   0  0  0  0  0  0  0  0  0  0  0  0
   23.4290   11.4900   19.0390 C   0  0  0  0  0  0  0  0  0  0  0  0
   24.7120   11.0520   19.3750 C   0  0  0  0  0  0  0  0  0  0  0  0
   25.7370   11.2830   18.4900 O   0  0  0  0  0  0  0  0  0  0  0  0
   27.1390   11.2030   18.8640 C   0  0  0  0  0  0  0  0  0  0  0  0
   24.9290   10.3960   20.5890 C   0  0  0  0  0  0  0  0  0  0  0  0
   23.8540   10.1850   21.4520 C   0  0  0  0  0  0  0  0  0  0  0  0
   22.8650    8.0660   24.7770 H   0  0  0  0  0  0  0  0  0  0  0  0
   23.5110    9.3220   25.8090 H   0  0  0  0  0  0  0  0  0  0  0  0
   22.8390   12.6580   22.4220 H   0  0  0  0  0  0  0  0  0  0  0  0
   21.6890   13.4890   23.4980 H   0  0  0  0  0  0  0  0  0  0  0  0
   20.4980   12.3040   21.6900 H   0  0  0  0  0  0  0  0  0  0  0  0
   20.1160   11.5860   23.2730 H   0  0  0  0  0  0  0  0  0  0  0  0
   19.4690    9.4750   21.9170 H   0  0  0  0  0  0  0  0  0  0  0  0
   20.7140    8.7070   20.9030 H   0  0  0  0  0  0  0  0  0  0  0  0
   20.0090   10.2680   20.4180 H   0  0  0  0  0  0  0  0  0  0  0  0
   21.3630   11.6310   19.6390 H   0  0  0  0  0  0  0  0  0  0  0  0
   23.2680   11.9940   18.0980 H   0  0  0  0  0  0  0  0  0  0  0  0
   27.7600   11.4260   17.9960 H   0  0  0  0  0  0  0  0  0  0  0  0
   27.3630   10.1980   19.2220 H   0  0  0  0  0  0  0  0  0  0  0  0
   27.3460   11.9250   19.6540 H   0  0  0  0  0  0  0  0  0  0  0  0
   25.9190   10.0560   20.8560 H   0  0  0  0  0  0  0  0  0  0  0  0
   24.0160    9.6750   22.3900 H   0  0  0  0  0  0  0  0  0  0  0  0
  1  2  1  0  0  0  0
  1 17  1  0  0  0  0
  1 18  1  0  0  0  0
  2  3  2  0  0  0  0
  2  4  1  0  0  0  0
  3  7  1  0  0  0  0
  4  5  1  0  0  0  0
  5  6  1  0  0  0  0
  5 19  1  0  0  0  0
  5 20  1  0  0  0  0
  6  7  1  0  0  0  0
  6 21  1  0  0  0  0
  6 22  1  0  0  0  0
  7  8  1  0  0  0  0
  7  9  1  0  0  0  0
  8 23  1  0  0  0  0
  8 24  1  0  0  0  0
  8 25  1  0  0  0  0
  9 10  1  0  0  0  0
  9 16  2  0  0  0  0
 10 11  2  0  0  0  0
 10 26  1  0  0  0  0
 11 12  1  0  0  0  0
 11 27  1  0  0  0  0
 12 13  1  0  0  0  0
 12 15  2  0  0  0  0
 13 14  1  0  0  0  0
 14 28  1  0  0  0  0
 14 29  1  0  0  0  0
 14 30  1  0  0  0  0
 15 16  1  0  0  0  0
 15 31  1  0  0  0  0
 16 32  1  0  0  0  0
M  END
>  <PARENT_CMPD_ID>
4BEK

>  <STANDARD_TYPE>
IC50

>  <RELATION>
=

>  <STANDARD_VALUE>
41.200001

>  <STANDARD_UNITS>
uM

>  <COMPOUND_KEY>
1

>  <PUBMED_ID>
23735744

>  <JOURNAL>
Bioorg.Med.Chem.Lett.

>  <YEAR>
2013

>  <VOLUME>
23

>  <FIRST_PAGE>
4239

>  <Company>
Roche

>  <Resolution>
2.3900001

>  <idx>
182

>  <Model>
Train

>  <target>
4.3851027

>  <des_pred_mlr>
4.3544402

>  <RF_Canvas>
4.0229282

>  <DNN_Canvas>
4.4789371

>  <pred_CoMFA>
3.8642001

>  <pred_COMSIA>
4.421

>  <pred_abm5>
3.782969

>  <pred_ff8>
5.2575245

>  <pred_gau6>
4.1377997

>  <CID>
BACE_182

>  <active>
0

>  <des_class_bayes>
0

>  <maacs_class_bayes>
0

>  <radial_class_bayes>
0

>  <dend_class_bayes>
0

>  <molprint_class_bayes>
0

>  <RF_canvas>
0

>  <DNN_canvas>
0

$$$$
3WB4_6506
  MOE2015           3D

 37 38  0  0  1  0  0  0  0  0999 V2000
   21.9210   13.4170   23.5410 O   0  0  0  0  0  0  0  0  0  0  0  0
   21.8420   12.2120   23.3960 C   0  0  0  0  0  0  0  0  0  0  0  0
   22.6070   11.3590   24.1030 N   0  0  0  0  0  0  0  0  0  0  0  0
   23.4470   11.9020   25.1670 C   0  0  0  0  0  0  0  0  0  0  0  0
   22.5370   10.0300   23.8040 C   0  0  0  0  0  0  0  0  0  0  0  0
   22.9790    9.1460   24.6880 N   0  0  0  0  0  0  0  0  0  0  0  0
   22.0770    9.5800   22.7180 N   0  0  0  0  0  0  0  0  0  0  0  0
   20.8750   11.6420   22.3950 C   0  0  0  0  0  0  0  0  0  0  0  0
   21.5620   10.4780   21.6950 C   0  0  3  0  0  0  0  0  0  0  0  0
   20.5620    9.7470   20.8140 C   0  0  0  0  0  0  0  0  0  0  0  0
   22.6970   11.0400   20.8200 C   0  0  0  0  0  0  0  0  0  0  0  0
   23.7260    9.9650   20.4560 C   0  0  0  0  0  0  0  0  0  0  0  0
   24.9760   10.5550   19.8310 C   0  0  0  0  0  0  0  0  0  0  0  0
   24.9320   11.2240   18.6120 C   0  0  0  0  0  0  0  0  0  0  0  0
   26.1010   11.7610   18.0540 C   0  0  0  0  0  0  0  0  0  0  0  0
   27.3220   11.6190   18.7160 C   0  0  0  0  0  0  0  0  0  0  0  0
   27.3820   10.9460   19.9300 C   0  0  0  0  0  0  0  0  0  0  0  0
   26.2040   10.4180   20.4730 C   0  0  0  0  0  0  0  0  0  0  0  0
   23.3280   12.9850   25.2070 H   0  0  0  0  0  0  0  0  0  0  0  0
   24.4900   11.6580   24.9670 H   0  0  0  0  0  0  0  0  0  0  0  0
   23.1490   11.4690   26.1220 H   0  0  0  0  0  0  0  0  0  0  0  0
   22.9390    8.1590   24.4780 H   0  0  0  0  0  0  0  0  0  0  0  0
   23.3560    9.4600   25.5710 H   0  0  0  0  0  0  0  0  0  0  0  0
   20.6030   12.4050   21.6660 H   0  0  0  0  0  0  0  0  0  0  0  0
   19.9780   11.2910   22.9050 H   0  0  0  0  0  0  0  0  0  0  0  0
   19.7570    9.3480   21.4320 H   0  0  0  0  0  0  0  0  0  0  0  0
   21.0630    8.9290   20.2970 H   0  0  0  0  0  0  0  0  0  0  0  0
   20.1480   10.4400   20.0810 H   0  0  0  0  0  0  0  0  0  0  0  0
   23.2000   11.8380   21.3660 H   0  0  0  0  0  0  0  0  0  0  0  0
   22.2680   11.4420   19.9020 H   0  0  0  0  0  0  0  0  0  0  0  0
   23.2730    9.2720   19.7470 H   0  0  0  0  0  0  0  0  0  0  0  0
   24.0070    9.4270   21.3620 H   0  0  0  0  0  0  0  0  0  0  0  0
   23.9910   11.3300   18.0920 H   0  0  0  0  0  0  0  0  0  0  0  0
   26.0570   12.2850   17.1110 H   0  0  0  0  0  0  0  0  0  0  0  0
   28.2210   12.0330   18.2840 H   0  0  0  0  0  0  0  0  0  0  0  0
   28.3230   10.8320   20.4470 H   0  0  0  0  0  0  0  0  0  0  0  0
   26.2490    9.8910   21.4140 H   0  0  0  0  0  0  0  0  0  0  0  0
  1  2  2  0  0  0  0
  2  3  1  0  0  0  0
  2  8  1  0  0  0  0
  3  4  1  0  0  0  0
  3  5  1  0  0  0  0
  4 19  1  0  0  0  0
  4 20  1  0  0  0  0
  4 21  1  0  0  0  0
  5  6  1  0  0  0  0
  5  7  2  0  0  0  0
  6 22  1  0  0  0  0
  6 23  1  0  0  0  0
  7  9  1  0  0  0  0
  8  9  1  0  0  0  0
  8 24  1  0  0  0  0
  8 25  1  0  0  0  0
  9 10  1  0  0  0  0
  9 11  1  0  0  0  0
 10 26  1  0  0  0  0
 10 27  1  0  0  0  0
 10 28  1  0  0  0  0
 11 12  1  0  0  0  0
 11 29  1  0  0  0  0
 11 30  1  0  0  0  0
 12 13  1  0  0  0  0
 12 31  1  0  0  0  0
 12 32  1  0  0  0  0
 13 14  1  0  0  0  0
 13 18  2  0  0  0  0
 14 15  2  0  0  0  0
 14 33  1  0  0  0  0
 15 16  1  0  0  0  0
 15 34  1  0  0  0  0
 16 17  2  0  0  0  0
 16 35  1  0  0  0  0
 17 18  1  0  0  0  0
 17 36  1  0  0  0  0
 18 37  1  0  0  0  0
M  END
>  <PARENT_CMPD_ID>
3WB4

>  <STANDARD_TYPE>
IC50

>  <RELATION>
=

>  <STANDARD_VALUE>
41.400002

>  <STANDARD_UNITS>
uM

>  <COMPOUND_KEY>
(R)-3

>  <PUBMED_ID>
24051074

>  <JOURNAL>
Bioorg.Med.Chem.

>  <YEAR>
2013

>  <VOLUME>
21

>  <FIRST_PAGE>
6506

>  <Company>
Shionogi

>  <Resolution>
2.25

>  <idx>
183

>  <Model>
Train

>  <target>
4.3829994

>  <des_pred_mlr>
5.7699299

>  <RF_Canvas>
4.1221404

>  <DNN_Canvas>
5.0980577

>  <pred_CoMFA>
4.5595999

>  <pred_COMSIA>
4.4415002

>  <pred_abm5>
4.4635563

>  <pred_ff8>
5.4648447

>  <pred_gau6>
4.7144413

>  <CID>
BACE_183

>  <active>
0

>  <des_class_bayes>
0

>  <maacs_class_bayes>
0

>  <radial_class_bayes>
0

>  <dend_class_bayes>
0

>  <molprint_class_bayes>
0

>  <RF_canvas>
0

>  <DNN_canvas>
0

$$$$
3L5D_951
  MOE2015           3D

 61 62  0  0  1  0  0  0  0  0999 V2000
   20.7130   10.7460   21.9330 C   0  0  3  0  0  0  0  0  0  0  0  0
   21.3120    9.6330   22.6500 N   0  0  0  0  0  0  0  0  0  0  0  0
   21.3590    8.6720   22.3420 H   0  0  0  0  0  0  0  0  0  0  0  0
   20.5900   13.0860   22.6630 O   0  0  0  0  0  0  0  0  0  0  0  0
   21.7950   10.1330   23.8100 C   0  0  0  0  0  0  0  0  0  0  0  0
   21.5900   11.4590   23.9610 N   0  0  0  0  0  0  0  0  0  0  0  0
   28.4310   14.3220   24.8840 O   0  0  0  0  0  0  0  0  0  0  0  0
   20.9450   11.9260   22.8800 C   0  0  0  0  0  0  0  0  0  0  0  0
   22.4180    9.4010   24.7320 N   0  0  0  0  0  0  0  0  0  0  0  0
   22.5530    8.4110   24.5840 H   0  0  0  0  0  0  0  0  0  0  0  0
   19.1900   10.5620   21.7880 C   0  0  0  0  0  0  0  0  0  0  0  0
   27.5390   15.1320   22.9690 N   0  0  0  0  0  0  0  0  0  0  0  0
   21.4220   10.9900   20.5960 C   0  0  0  0  0  0  0  0  0  0  0  0
   29.3700   13.7850   22.8930 N   0  0  0  0  0  0  0  0  0  0  0  0
   22.9270   11.2250   20.7410 C   0  0  0  0  0  0  0  0  0  0  0  0
   23.4700   12.1170   19.6240 C   0  0  0  0  0  0  0  0  0  0  0  0
   23.7060    9.9160   20.8550 C   0  0  0  0  0  0  0  0  0  0  0  0
   22.0070   12.2700   25.1080 C   0  0  0  0  0  0  0  0  0  0  0  0
   23.1660   13.1910   24.7570 C   0  0  0  0  0  0  0  0  0  0  0  0
   23.2370   14.5010   25.3170 C   0  0  0  0  0  0  0  0  0  0  0  0
   24.3270   15.3630   24.9860 C   0  0  0  0  0  0  0  0  0  0  0  0
   25.3480   14.9180   24.0940 C   0  0  0  0  0  0  0  0  0  0  0  0
   25.2770   13.6090   23.5340 C   0  0  0  0  0  0  0  0  0  0  0  0
   24.1910   12.7500   23.8660 C   0  0  0  0  0  0  0  0  0  0  0  0
   26.5070   15.8310   23.7400 C   0  0  0  0  0  0  0  0  0  0  0  0
   29.3030   13.9480   21.4450 C   0  0  0  0  0  0  0  0  0  0  0  0
   28.4700   12.8350   20.8060 C   0  0  0  0  0  0  0  0  0  0  0  0
   28.8610   11.4640   21.3300 C   0  0  0  0  0  0  0  0  0  0  0  0
   28.4470   14.4080   23.6560 C   0  0  0  0  0  0  0  0  0  0  0  0
   28.2810   10.3400   20.4920 C   0  0  0  0  0  0  0  0  0  0  0  0
   18.7490   10.3930   22.7710 H   0  0  0  0  0  0  0  0  0  0  0  0
   18.9870    9.7040   21.1470 H   0  0  0  0  0  0  0  0  0  0  0  0
   18.7560   11.4580   21.3440 H   0  0  0  0  0  0  0  0  0  0  0  0
   27.5690   15.1900   21.9610 H   0  0  0  0  0  0  0  0  0  0  0  0
   20.9790   11.8670   20.1250 H   0  0  0  0  0  0  0  0  0  0  0  0
   21.2680   10.1190   19.9590 H   0  0  0  0  0  0  0  0  0  0  0  0
   30.0910   13.2180   23.3160 H   0  0  0  0  0  0  0  0  0  0  0  0
   23.0750   11.7590   21.6800 H   0  0  0  0  0  0  0  0  0  0  0  0
   23.3400   11.6170   18.6640 H   0  0  0  0  0  0  0  0  0  0  0  0
   24.5300   12.3080   19.7940 H   0  0  0  0  0  0  0  0  0  0  0  0
   22.9270   13.0620   19.6180 H   0  0  0  0  0  0  0  0  0  0  0  0
   23.5890    9.3420   19.9360 H   0  0  0  0  0  0  0  0  0  0  0  0
   23.3230    9.3370   21.6960 H   0  0  0  0  0  0  0  0  0  0  0  0
   24.7620   10.1340   21.0150 H   0  0  0  0  0  0  0  0  0  0  0  0
   22.3160   11.6060   25.9160 H   0  0  0  0  0  0  0  0  0  0  0  0
   21.1630   12.8750   25.4380 H   0  0  0  0  0  0  0  0  0  0  0  0
   22.4660   14.8420   25.9920 H   0  0  0  0  0  0  0  0  0  0  0  0
   24.3780   16.3540   25.4120 H   0  0  0  0  0  0  0  0  0  0  0  0
   26.0470   13.2690   22.8580 H   0  0  0  0  0  0  0  0  0  0  0  0
   24.1420   11.7580   23.4410 H   0  0  0  0  0  0  0  0  0  0  0  0
   26.1300   16.6650   23.1490 H   0  0  0  0  0  0  0  0  0  0  0  0
   26.9510   16.2100   24.6610 H   0  0  0  0  0  0  0  0  0  0  0  0
   30.3130   13.9170   21.0360 H   0  0  0  0  0  0  0  0  0  0  0  0
   28.8470   14.9110   21.2150 H   0  0  0  0  0  0  0  0  0  0  0  0
   28.6220   12.8560   19.7270 H   0  0  0  0  0  0  0  0  0  0  0  0
   27.4170   13.0100   21.0280 H   0  0  0  0  0  0  0  0  0  0  0  0
   28.4970   11.3630   22.3520 H   0  0  0  0  0  0  0  0  0  0  0  0
   29.9480   11.3820   21.3220 H   0  0  0  0  0  0  0  0  0  0  0  0
   27.1930   10.4110   20.4920 H   0  0  0  0  0  0  0  0  0  0  0  0
   28.5830    9.3810   20.9120 H   0  0  0  0  0  0  0  0  0  0  0  0
   28.6500   10.4210   19.4700 H   0  0  0  0  0  0  0  0  0  0  0  0
  1  2  1  0  0  0  0
  1  8  1  0  0  0  0
  1 11  1  0  0  0  0
  1 13  1  0  0  0  0
  2  3  1  0  0  0  0
  2  5  1  0  0  0  0
  4  8  2  0  0  0  0
  5  6  1  0  0  0  0
  5  9  2  0  0  0  0
  6  8  1  0  0  0  0
  6 18  1  0  0  0  0
  7 29  2  0  0  0  0
  9 10  1  0  0  0  0
 11 31  1  0  0  0  0
 11 32  1  0  0  0  0
 11 33  1  0  0  0  0
 12 25  1  0  0  0  0
 12 29  1  0  0  0  0
 12 34  1  0  0  0  0
 13 15  1  0  0  0  0
 13 35  1  0  0  0  0
 13 36  1  0  0  0  0
 14 26  1  0  0  0  0
 14 29  1  0  0  0  0
 14 37  1  0  0  0  0
 15 16  1  0  0  0  0
 15 17  1  0  0  0  0
 15 38  1  0  0  0  0
 16 39  1  0  0  0  0
 16 40  1  0  0  0  0
 16 41  1  0  0  0  0
 17 42  1  0  0  0  0
 17 43  1  0  0  0  0
 17 44  1  0  0  0  0
 18 19  1  0  0  0  0
 18 45  1  0  0  0  0
 18 46  1  0  0  0  0
 19 20  1  0  0  0  0
 19 24  2  0  0  0  0
 20 21  2  0  0  0  0
 20 47  1  0  0  0  0
 21 22  1  0  0  0  0
 21 48  1  0  0  0  0
 22 23  2  0  0  0  0
 22 25  1  0  0  0  0
 23 24  1  0  0  0  0
 23 49  1  0  0  0  0
 24 50  1  0  0  0  0
 25 51  1  0  0  0  0
 25 52  1  0  0  0  0
 26 27  1  0  0  0  0
 26 53  1  0  0  0  0
 26 54  1  0  0  0  0
 27 28  1  0  0  0  0
 27 55  1  0  0  0  0
 27 56  1  0  0  0  0
 28 30  1  0  0  0  0
 28 57  1  0  0  0  0
 28 58  1  0  0  0  0
 30 59  1  0  0  0  0
 30 60  1  0  0  0  0
 30 61  1  0  0  0  0
M  END
>  <PARENT_CMPD_ID>
3L5D

>  <STANDARD_TYPE>
IC50

>  <RELATION>
=

>  <STANDARD_VALUE>
78

>  <STANDARD_UNITS>
uM

>  <COMPOUND_KEY>
32

>  <PUBMED_ID>
20043696

>  <JOURNAL>
J.Med.Chem.

>  <YEAR>
2010

>  <VOLUME>
53

>  <FIRST_PAGE>
951

>  <Company>
Schering

>  <Resolution>
1.75

>  <idx>
184

>  <Model>
Train

>  <target>
4.1079054

>  <des_pred_mlr>
5.8057199

>  <RF_Canvas>
4.661624

>  <DNN_Canvas>
4.4740329

>  <pred_CoMFA>
4.5823998

>  <pred_COMSIA>
4.9745998

>  <pred_abm5>
4.6570292

>  <pred_ff8>
4.8793621

>  <pred_gau6>
4.8680058

>  <CID>
BACE_184

>  <active>
0

>  <des_class_bayes>
0

>  <maacs_class_bayes>
0

>  <radial_class_bayes>
0

>  <dend_class_bayes>
0

>  <molprint_class_bayes>
0

>  <RF_canvas>
0

>  <DNN_canvas>
0

$$$$
3UDM_9069
  MOE2015           3D

 43 46  0  0  1  0  0  0  0  0999 V2000
   14.0840   10.1430   23.4990 C   0  0  0  0  0  0  0  0  0  0  0  0
   13.1630    9.9670   22.9630 H   0  0  0  0  0  0  0  0  0  0  0  0
   24.3470   10.4650   19.3810 C   0  0  0  0  0  0  0  0  0  0  0  0
   24.8710    9.7300   18.7880 H   0  0  0  0  0  0  0  0  0  0  0  0
   14.5850   11.4350   23.6280 C   0  0  0  0  0  0  0  0  0  0  0  0
   14.0260   12.2730   23.2370 H   0  0  0  0  0  0  0  0  0  0  0  0
   14.7860    9.0700   24.0710 C   0  0  0  0  0  0  0  0  0  0  0  0
   14.3860    8.0690   24.0030 H   0  0  0  0  0  0  0  0  0  0  0  0
   24.1880   11.7690   18.9090 C   0  0  0  0  0  0  0  0  0  0  0  0
   24.5880   12.0380   17.9420 H   0  0  0  0  0  0  0  0  0  0  0  0
   23.8230   10.1230   20.6250 C   0  0  0  0  0  0  0  0  0  0  0  0
   23.9600    9.1250   21.0150 H   0  0  0  0  0  0  0  0  0  0  0  0
   15.8150   11.6490   24.2650 C   0  0  0  0  0  0  0  0  0  0  0  0
   16.2200   12.6490   24.3150 H   0  0  0  0  0  0  0  0  0  0  0  0
   16.0040    9.2900   24.7300 C   0  0  0  0  0  0  0  0  0  0  0  0
   16.5420    8.4570   25.1570 H   0  0  0  0  0  0  0  0  0  0  0  0
   23.5270   12.7190   19.6610 C   0  0  0  0  0  0  0  0  0  0  0  0
   23.4250   13.7280   19.2900 H   0  0  0  0  0  0  0  0  0  0  0  0
   23.1240   11.0690   21.3610 C   0  0  0  0  0  0  0  0  0  0  0  0
   16.5270   10.5890   24.8370 C   0  0  0  0  0  0  0  0  0  0  0  0
   22.9940   12.3750   20.8940 C   0  0  0  0  0  0  0  0  0  0  0  0
   22.1480   12.3290   22.9020 C   0  0  0  0  0  0  0  0  0  0  0  0
   20.2800   10.0950   24.9320 C   0  0  0  0  0  0  0  0  0  0  0  0
   21.1740   10.0890   22.6190 C   0  0  0  0  0  0  0  0  0  0  0  0
   20.3140   10.7520   22.5270 H   0  0  0  0  0  0  0  0  0  0  0  0
   21.1830    9.3880   21.7840 H   0  0  0  0  0  0  0  0  0  0  0  0
   23.3710   10.2870   23.7320 C   0  0  0  0  0  0  0  0  0  0  0  0
   23.6900   11.0460   24.4460 H   0  0  0  0  0  0  0  0  0  0  0  0
   24.2480    9.8190   23.2840 H   0  0  0  0  0  0  0  0  0  0  0  0
   21.1430    9.3520   23.9370 C   0  0  3  0  0  0  0  0  0  0  0  0
   20.7160    8.3520   23.8580 H   0  0  0  0  0  0  0  0  0  0  0  0
   22.4620   10.8840   22.6660 C   0  0  3  0  0  0  0  0  0  0  0  0
   17.8840   10.8310   25.4980 C   0  0  0  0  0  0  0  0  0  0  0  0
   17.9030   10.3830   26.4910 H   0  0  0  0  0  0  0  0  0  0  0  0
   18.0770   11.9010   25.5780 H   0  0  0  0  0  0  0  0  0  0  0  0
   22.2830   13.0870   21.8020 N   0  0  0  0  0  0  0  0  0  0  0  0
   21.9200   14.0210   21.6740 H   0  0  0  0  0  0  0  0  0  0  0  0
   22.5280    9.3110   24.3570 N   0  3  0  0  0  0  0  0  0  0  0  0
   22.5590    9.4610   25.3550 H   0  0  0  0  0  0  0  0  0  0  0  0
   22.8950    8.3950   24.1430 H   0  0  0  0  0  0  0  0  0  0  0  0
   21.2430   12.6470   23.7360 O   0  0  0  0  0  0  0  0  0  0  0  0
   20.7280   10.4050   26.0200 O   0  0  0  0  0  0  0  0  0  0  0  0
   18.8680   10.2140   24.6600 O   0  0  0  0  0  0  0  0  0  0  0  0
  1  2  1  0  0  0  0
  1  5  2  0  0  0  0
  1  7  1  0  0  0  0
  3  4  1  0  0  0  0
  3  9  2  0  0  0  0
  3 11  1  0  0  0  0
  5  6  1  0  0  0  0
  5 13  1  0  0  0  0
  7  8  1  0  0  0  0
  7 15  2  0  0  0  0
  9 10  1  0  0  0  0
  9 17  1  0  0  0  0
 11 12  1  0  0  0  0
 11 19  2  0  0  0  0
 13 14  1  0  0  0  0
 13 20  2  0  0  0  0
 15 16  1  0  0  0  0
 15 20  1  0  0  0  0
 17 18  1  0  0  0  0
 17 21  2  0  0  0  0
 19 21  1  0  0  0  0
 19 32  1  0  0  0  0
 20 33  1  0  0  0  0
 21 36  1  0  0  0  0
 22 32  1  0  0  0  0
 22 36  1  0  0  0  0
 22 41  2  0  0  0  0
 23 30  1  0  0  0  0
 23 42  2  0  0  0  0
 23 43  1  0  0  0  0
 24 25  1  0  0  0  0
 24 26  1  0  0  0  0
 24 30  1  0  0  0  0
 24 32  1  0  0  0  0
 27 28  1  0  0  0  0
 27 29  1  0  0  0  0
 27 32  1  0  0  0  0
 27 38  1  0  0  0  0
 30 31  1  0  0  0  0
 30 38  1  0  0  0  0
 33 34  1  0  0  0  0
 33 35  1  0  0  0  0
 33 43  1  0  0  0  0
 36 37  1  0  0  0  0
 38 39  1  0  0  0  0
 38 40  1  0  0  0  0
M  CHG  1  38   1
M  END
>  <PARENT_CMPD_ID>
3UDM

>  <STANDARD_TYPE>
IC50

>  <RELATION>
=

>  <STANDARD_VALUE>
85.699997

>  <STANDARD_UNITS>
uM

>  <COMPOUND_KEY>
8

>  <PUBMED_ID>
22468999

>  <JOURNAL>
J.Med.Chem.

>  <YEAR>
2012

>  <VOLUME>
55

>  <FIRST_PAGE>
9069

>  <Company>
Pfizer

>  <Resolution>
1.9400001

>  <idx>
185

>  <Model>
Train

>  <target>
4.067019

>  <des_pred_mlr>
5.0199699

>  <RF_Canvas>
4.3647513

>  <DNN_Canvas>
4.0119128

>  <pred_CoMFA>
4.5622001

>  <pred_COMSIA>
4.6673002

>  <pred_abm5>
4.6310906

>  <pred_ff8>
5.0259347

>  <pred_gau6>
4.4294686

>  <CID>
BACE_185

>  <active>
0

>  <des_class_bayes>
0

>  <maacs_class_bayes>
0

>  <radial_class_bayes>
0

>  <dend_class_bayes>
0

>  <molprint_class_bayes>
0

>  <RF_canvas>
0

>  <DNN_canvas>
0

$$$$
2OHP_1124
  MOE2015           3D

 33 35  0  0  0  0  0  0  0  0999 V2000
   22.9700    9.2210   24.9040 N   0  0  0  0  0  0  0  0  0  0  0  0
   22.8860   10.1830   24.0160 C   0  0  0  0  0  0  0  0  0  0  0  0
   22.8840   11.5180   24.4030 C   0  0  0  0  0  0  0  0  0  0  0  0
   22.7940   12.5100   23.4500 C   0  0  0  0  0  0  0  0  0  0  0  0
   22.6830   12.1720   22.1140 C   0  0  0  0  0  0  0  0  0  0  0  0
   22.6630   10.8360   21.7340 C   0  0  0  0  0  0  0  0  0  0  0  0
   22.5550   10.4350   20.2850 C   0  0  0  0  0  0  0  0  0  0  0  0
   23.6780    9.5120   19.8540 C   0  0  0  0  0  0  0  0  0  0  0  0
   25.0380   10.1630   19.8780 C   0  0  0  0  0  0  0  0  0  0  0  0
   25.3200   11.2240   19.0210 C   0  0  0  0  0  0  0  0  0  0  0  0
   26.5670   11.8230   19.0100 C   0  0  0  0  0  0  0  0  0  0  0  0
   27.5560   11.3440   19.8600 C   0  0  0  0  0  0  0  0  0  0  0  0
   28.8990   11.7030   20.1000 C   0  0  0  0  0  0  0  0  0  0  0  0
   29.4000   10.8450   21.0810 C   0  0  0  0  0  0  0  0  0  0  0  0
   28.4220    9.9870   21.4350 N   0  0  0  0  0  0  0  0  0  0  0  0
   27.2830   10.2730   20.7130 C   0  0  0  0  0  0  0  0  0  0  0  0
   26.0280    9.6760   20.7260 C   0  0  0  0  0  0  0  0  0  0  0  0
   22.7540    9.8650   22.6920 N   0  0  0  0  0  0  0  0  0  0  0  0
   22.9660    9.4590   25.8350 H   0  0  0  0  0  0  0  0  0  0  0  0
   23.0250    8.3060   24.6250 H   0  0  0  0  0  0  0  0  0  0  0  0
   22.9740   11.7750   25.4490 H   0  0  0  0  0  0  0  0  0  0  0  0
   22.7990   13.5470   23.7480 H   0  0  0  0  0  0  0  0  0  0  0  0
   22.6040   12.9450   21.3650 H   0  0  0  0  0  0  0  0  0  0  0  0
   22.5760   11.3300   19.6650 H   0  0  0  0  0  0  0  0  0  0  0  0
   21.6020    9.9330   20.1240 H   0  0  0  0  0  0  0  0  0  0  0  0
   23.4740    9.1630   18.8410 H   0  0  0  0  0  0  0  0  0  0  0  0
   23.6890    8.6420   20.5070 H   0  0  0  0  0  0  0  0  0  0  0  0
   24.5450   11.5950   18.3660 H   0  0  0  0  0  0  0  0  0  0  0  0
   26.7620   12.6540   18.3480 H   0  0  0  0  0  0  0  0  0  0  0  0
   29.4350   12.5030   19.6110 H   0  0  0  0  0  0  0  0  0  0  0  0
   30.3940   10.8420   21.5040 H   0  0  0  0  0  0  0  0  0  0  0  0
   28.5020    9.2870   22.1010 H   0  0  0  0  0  0  0  0  0  0  0  0
   25.8170    8.8390   21.3750 H   0  0  0  0  0  0  0  0  0  0  0  0
  1  2  1  0  0  0  0
  1 19  1  0  0  0  0
  1 20  1  0  0  0  0
  2  3  1  0  0  0  0
  2 18  2  0  0  0  0
  3  4  2  0  0  0  0
  3 21  1  0  0  0  0
  4  5  1  0  0  0  0
  4 22  1  0  0  0  0
  5  6  2  0  0  0  0
  5 23  1  0  0  0  0
  6  7  1  0  0  0  0
  6 18  1  0  0  0  0
  7  8  1  0  0  0  0
  7 24  1  0  0  0  0
  7 25  1  0  0  0  0
  8  9  1  0  0  0  0
  8 26  1  0  0  0  0
  8 27  1  0  0  0  0
  9 10  1  0  0  0  0
  9 17  2  0  0  0  0
 10 11  2  0  0  0  0
 10 28  1  0  0  0  0
 11 12  1  0  0  0  0
 11 29  1  0  0  0  0
 12 13  1  0  0  0  0
 12 16  2  0  0  0  0
 13 14  2  0  0  0  0
 13 30  1  0  0  0  0
 14 15  1  0  0  0  0
 14 31  1  0  0  0  0
 15 16  1  0  0  0  0
 15 32  1  0  0  0  0
 16 17  1  0  0  0  0
 17 33  1  0  0  0  0
M  END
>  <PARENT_CMPD_ID>
2OHP

>  <STANDARD_TYPE>
IC50

>  <RELATION>
=

>  <STANDARD_VALUE>
94

>  <STANDARD_UNITS>
uM

>  <COMPOUND_KEY>
3

>  <PUBMED_ID>
17315857

>  <JOURNAL>
J.Med.Chem.

>  <YEAR>
2007

>  <VOLUME>
50

>  <FIRST_PAGE>
1124

>  <Company>
Astex

>  <Resolution>
2.25

>  <idx>
186

>  <Model>
Train

>  <target>
4.0268722

>  <des_pred_mlr>
5.4316101

>  <RF_Canvas>
3.8857827

>  <DNN_Canvas>
4.1165276

>  <pred_CoMFA>
4.2543998

>  <pred_COMSIA>
4.4962001

>  <pred_abm5>
3.5380812

>  <pred_ff8>
4.8550134

>  <pred_gau6>
4.040524

>  <CID>
BACE_186

>  <active>
0

>  <des_class_bayes>
0

>  <maacs_class_bayes>
0

>  <radial_class_bayes>
0

>  <dend_class_bayes>
0

>  <molprint_class_bayes>
0

>  <RF_canvas>
0

>  <DNN_canvas>
0

$$$$
4L7G_5802
  MOE2015           3D

 38 41  0  0  1  0  0  0  0  0999 V2000
   24.6590   10.7400   21.2420 C   0  0  0  0  0  0  0  0  0  0  0  0
   23.3260   10.8850   20.9080 C   0  0  0  0  0  0  0  0  0  0  0  0
   22.9870   11.2610   19.6150 C   0  0  0  0  0  0  0  0  0  0  0  0
   22.2590   10.6440   21.9660 C   0  0  3  0  0  0  0  0  0  0  0  0
   20.8630   10.7120   21.3680 C   0  0  0  0  0  0  0  0  0  0  0  0
   27.0850   10.8570   20.7280 C   0  0  0  0  0  0  0  0  0  0  0  0
   29.6490   10.7440   21.5320 C   0  0  0  0  0  0  0  0  0  0  0  0
   28.0190   11.8250   20.3320 C   0  0  0  0  0  0  0  0  0  0  0  0
   23.9820   11.4950   18.6740 C   0  0  0  0  0  0  0  0  0  0  0  0
   25.3170   11.3600   19.0120 C   0  0  0  0  0  0  0  0  0  0  0  0
   25.6670   10.9700   20.3010 C   0  0  0  0  0  0  0  0  0  0  0  0
   19.8730   10.4670   22.5330 C   0  0  0  0  0  0  0  0  0  0  0  0
   20.0670   11.4300   23.5600 O   0  0  0  0  0  0  0  0  0  0  0  0
   21.0040   12.4720   23.2180 C   0  0  0  0  0  0  0  0  0  0  0  0
   22.3450   11.7950   23.0430 C   0  0  3  0  0  0  0  0  0  0  0  0
   22.8030   11.1390   24.2150 O   0  0  0  0  0  0  0  0  0  0  0  0
   22.7550    9.8040   23.9990 C   0  0  0  0  0  0  0  0  0  0  0  0
   22.4950    9.4590   22.7650 N   0  0  0  0  0  0  0  0  0  0  0  0
   22.9670    8.9100   24.9970 N   0  0  0  0  0  0  0  0  0  0  0  0
   27.5310    9.8320   21.5630 C   0  0  0  0  0  0  0  0  0  0  0  0
   28.8000    9.8180   21.9430 N   0  0  0  0  0  0  0  0  0  0  0  0
   29.2730   11.7360   20.7480 N   0  0  0  0  0  0  0  0  0  0  0  0
   24.9260   10.4440   22.2460 H   0  0  0  0  0  0  0  0  0  0  0  0
   21.9480   11.3720   19.3400 H   0  0  0  0  0  0  0  0  0  0  0  0
   20.7430    9.9440   20.6040 H   0  0  0  0  0  0  0  0  0  0  0  0
   20.6900   11.6940   20.9270 H   0  0  0  0  0  0  0  0  0  0  0  0
   30.6800   10.6870   21.8470 H   0  0  0  0  0  0  0  0  0  0  0  0
   27.7170   12.6400   19.6900 H   0  0  0  0  0  0  0  0  0  0  0  0
   23.7110   11.7850   17.6700 H   0  0  0  0  0  0  0  0  0  0  0  0
   26.0840   11.5570   18.2780 H   0  0  0  0  0  0  0  0  0  0  0  0
   20.0380    9.4700   22.9400 H   0  0  0  0  0  0  0  0  0  0  0  0
   18.8520   10.5420   22.1580 H   0  0  0  0  0  0  0  0  0  0  0  0
   21.0560   13.2110   24.0180 H   0  0  0  0  0  0  0  0  0  0  0  0
   20.7040   12.9600   22.2910 H   0  0  0  0  0  0  0  0  0  0  0  0
   23.0180   12.6050   22.7610 H   0  0  0  0  0  0  0  0  0  0  0  0
   22.9280    7.9190   24.8040 H   0  0  0  0  0  0  0  0  0  0  0  0
   23.1640    9.2350   25.9330 H   0  0  0  0  0  0  0  0  0  0  0  0
   26.8510    9.0610   21.8950 H   0  0  0  0  0  0  0  0  0  0  0  0
  1  2  1  0  0  0  0
  1 11  2  0  0  0  0
  1 23  1  0  0  0  0
  2  3  2  0  0  0  0
  2  4  1  0  0  0  0
  3  9  1  0  0  0  0
  3 24  1  0  0  0  0
  4  5  1  0  0  0  0
  4 15  1  0  0  0  0
  4 18  1  0  0  0  0
  5 12  1  0  0  0  0
  5 25  1  0  0  0  0
  5 26  1  0  0  0  0
  6  8  1  0  0  0  0
  6 11  1  0  0  0  0
  6 20  2  0  0  0  0
  7 21  2  0  0  0  0
  7 22  1  0  0  0  0
  7 27  1  0  0  0  0
  8 22  2  0  0  0  0
  8 28  1  0  0  0  0
  9 10  2  0  0  0  0
  9 29  1  0  0  0  0
 10 11  1  0  0  0  0
 10 30  1  0  0  0  0
 12 13  1  0  0  0  0
 12 31  1  0  0  0  0
 12 32  1  0  0  0  0
 13 14  1  0  0  0  0
 14 15  1  0  0  0  0
 14 33  1  0  0  0  0
 14 34  1  0  0  0  0
 15 16  1  0  0  0  0
 15 35  1  0  0  0  0
 16 17  1  0  0  0  0
 17 18  2  0  0  0  0
 17 19  1  0  0  0  0
 19 36  1  0  0  0  0
 19 37  1  0  0  0  0
 20 21  1  0  0  0  0
 20 38  1  0  0  0  0
M  END
>  <PARENT_CMPD_ID>
4L7G

>  <STANDARD_TYPE>
IC50

>  <RELATION>
=

>  <STANDARD_VALUE>
99.300003

>  <STANDARD_UNITS>
uM

>  <COMPOUND_KEY>
34

>  <JOURNAL>
Tetrahedron Lett.

>  <YEAR>
2013

>  <VOLUME>
54

>  <FIRST_PAGE>
5802

>  <Company>
Genentech

>  <Resolution>
1.38

>  <idx>
187

>  <Model>
Train

>  <target>
4.0030508

>  <des_pred_mlr>
5.5977001

>  <RF_Canvas>
4.2023983

>  <DNN_Canvas>
4.5438428

>  <pred_CoMFA>
4.7484999

>  <pred_COMSIA>
5.2151999

>  <pred_abm5>
4.6901207

>  <pred_ff8>
5.1355577

>  <pred_gau6>
4.7822266

>  <CID>
BACE_187

>  <active>
0

>  <des_class_bayes>
0

>  <maacs_class_bayes>
0

>  <radial_class_bayes>
0

>  <dend_class_bayes>
0

>  <molprint_class_bayes>
0

>  <RF_canvas>
0

>  <DNN_canvas>
0

$$$$
4B1E_9297
  MOE2015           3D

 44 47  0  0  1  0  0  0  0  0999 V2000
   20.8610   10.0580   21.1270 C   0  0  0  0  0  0  0  0  0  0  0  0
   22.1800   10.4680   21.8110 C   0  0  3  0  0  0  0  0  0  0  0  0
   21.9000   11.5530   22.7760 N   0  0  0  0  0  0  0  0  0  0  0  0
   22.0150   11.0540   23.9790 C   0  0  0  0  0  0  0  0  0  0  0  0
   22.4430    9.6420   23.8800 C   0  0  0  0  0  0  0  0  0  0  0  0
   22.5670    9.3170   22.6300 N   0  3  0  0  0  0  0  0  0  0  0  0
   22.7080    8.8260   24.9500 N   0  0  0  0  0  0  0  0  0  0  0  0
   21.8080   11.7330   25.2850 C   0  0  0  0  0  0  0  0  0  0  0  0
   20.8730   11.1970   26.1960 C   0  0  0  0  0  0  0  0  0  0  0  0
   20.6900   11.7960   27.4380 C   0  0  0  0  0  0  0  0  0  0  0  0
   21.4340   12.9280   27.7790 C   0  0  0  0  0  0  0  0  0  0  0  0
   22.3610   13.4650   26.8830 C   0  0  0  0  0  0  0  0  0  0  0  0
   22.5600   12.8660   25.6410 C   0  0  0  0  0  0  0  0  0  0  0  0
   23.2850   10.8050   20.8110 C   0  0  0  0  0  0  0  0  0  0  0  0
   22.9930   11.1840   19.4960 C   0  0  0  0  0  0  0  0  0  0  0  0
   24.0050   11.4570   18.5780 C   0  0  0  0  0  0  0  0  0  0  0  0
   25.3380   11.3770   18.9640 C   0  0  0  0  0  0  0  0  0  0  0  0
   25.6600   10.9990   20.2770 C   0  0  0  0  0  0  0  0  0  0  0  0
   24.6230   10.7280   21.1900 C   0  0  0  0  0  0  0  0  0  0  0  0
   27.0790   10.9650   20.7360 C   0  0  0  0  0  0  0  0  0  0  0  0
   27.8740   12.1320   20.6660 C   0  0  0  0  0  0  0  0  0  0  0  0
   29.1890   12.0830   21.1300 C   0  0  0  0  0  0  0  0  0  0  0  0
   29.6640   10.8940   21.6820 C   0  0  0  0  0  0  0  0  0  0  0  0
   28.8970    9.8170   21.7540 N   0  0  0  0  0  0  0  0  0  0  0  0
   27.6520    9.8070   21.2880 C   0  0  0  0  0  0  0  0  0  0  0  0
   20.1130    9.8300   21.8870 H   0  0  0  0  0  0  0  0  0  0  0  0
   21.0310    9.1770   20.5090 H   0  0  0  0  0  0  0  0  0  0  0  0
   20.5060   10.8770   20.5020 H   0  0  0  0  0  0  0  0  0  0  0  0
   23.0300    7.8810   24.7970 H   0  0  0  0  0  0  0  0  0  0  0  0
   22.5810    9.1700   25.8910 H   0  0  0  0  0  0  0  0  0  0  0  0
   20.3000   10.3220   25.9290 H   0  0  0  0  0  0  0  0  0  0  0  0
   19.9750   11.3870   28.1360 H   0  0  0  0  0  0  0  0  0  0  0  0
   21.2910   13.3920   28.7440 H   0  0  0  0  0  0  0  0  0  0  0  0
   22.9240   14.3460   27.1530 H   0  0  0  0  0  0  0  0  0  0  0  0
   23.2890   13.2710   24.9550 H   0  0  0  0  0  0  0  0  0  0  0  0
   21.9620   11.2670   19.1860 H   0  0  0  0  0  0  0  0  0  0  0  0
   23.7530   11.7310   17.5640 H   0  0  0  0  0  0  0  0  0  0  0  0
   26.1220   11.6050   18.2570 H   0  0  0  0  0  0  0  0  0  0  0  0
   24.8700   10.4550   22.2050 H   0  0  0  0  0  0  0  0  0  0  0  0
   27.4700   13.0470   20.2600 H   0  0  0  0  0  0  0  0  0  0  0  0
   29.8280   12.9510   21.0630 H   0  0  0  0  0  0  0  0  0  0  0  0
   30.6760   10.8510   22.0580 H   0  0  0  0  0  0  0  0  0  0  0  0
   27.0730    8.8960   21.3340 H   0  0  0  0  0  0  0  0  0  0  0  0
   22.8780    8.4220   22.2810 H   0  0  0  0  0  0  0  0  0  0  0  0
  1  2  1  0  0  0  0
  1 26  1  0  0  0  0
  1 27  1  0  0  0  0
  1 28  1  0  0  0  0
  2  3  1  0  0  0  0
  2  6  1  0  0  0  0
  2 14  1  0  0  0  0
  3  4  2  0  0  0  0
  4  5  1  0  0  0  0
  4  8  1  0  0  0  0
  5  6  2  0  0  0  0
  5  7  1  0  0  0  0
  6 44  1  0  0  0  0
  7 29  1  0  0  0  0
  7 30  1  0  0  0  0
  8  9  1  0  0  0  0
  8 13  2  0  0  0  0
  9 10  2  0  0  0  0
  9 31  1  0  0  0  0
 10 11  1  0  0  0  0
 10 32  1  0  0  0  0
 11 12  2  0  0  0  0
 11 33  1  0  0  0  0
 12 13  1  0  0  0  0
 12 34  1  0  0  0  0
 13 35  1  0  0  0  0
 14 15  1  0  0  0  0
 14 19  2  0  0  0  0
 15 16  2  0  0  0  0
 15 36  1  0  0  0  0
 16 17  1  0  0  0  0
 16 37  1  0  0  0  0
 17 18  2  0  0  0  0
 17 38  1  0  0  0  0
 18 19  1  0  0  0  0
 18 20  1  0  0  0  0
 19 39  1  0  0  0  0
 20 21  1  0  0  0  0
 20 25  2  0  0  0  0
 21 22  2  0  0  0  0
 21 40  1  0  0  0  0
 22 23  1  0  0  0  0
 22 41  1  0  0  0  0
 23 24  2  0  0  0  0
 23 42  1  0  0  0  0
 24 25  1  0  0  0  0
 25 43  1  0  0  0  0
M  CHG  1   6   1
M  END
>  <PARENT_CMPD_ID>
4B1E

>  <STANDARD_TYPE>
IC50

>  <RELATION>
=

>  <STANDARD_UNITS>
uM

>  <COMPOUND_KEY>
1a

>  <PUBMED_ID>
23017051

>  <JOURNAL>
J.Med.Chem.

>  <YEAR>
2012

>  <VOLUME>
55

>  <FIRST_PAGE>
9297

>  <Company>
AstraZeneca

>  <Resolution>
1.95

>  <idx>
188

>  <Model>
Train

>  <target>
4

>  <des_pred_mlr>
4.6809301

>  <RF_Canvas>
4.4908242

>  <DNN_Canvas>
5.1086712

>  <pred_CoMFA>
4.4137001

>  <pred_COMSIA>
4.6327

>  <pred_abm5>
4.6517582

>  <pred_ff8>
5.4006176

>  <pred_gau6>
4.8289318

>  <CID>
BACE_188

>  <active>
0

>  <des_class_bayes>
0

>  <maacs_class_bayes>
0

>  <radial_class_bayes>
0

>  <dend_class_bayes>
0

>  <molprint_class_bayes>
0

>  <RF_canvas>
0

>  <DNN_canvas>
0

$$$$
2OHR_1124
  MOE2015           3D

 37 39  0  0  0  0  0  0  0  0999 V2000
   22.6720    9.2600   24.5970 N   0  0  0  0  0  0  0  0  0  0  0  0
   22.7750   10.5610   24.2730 C   0  0  0  0  0  0  0  0  0  0  0  0
   23.0870   11.4250   25.2670 N   0  0  0  0  0  0  0  0  0  0  0  0
   23.1670   12.7250   24.9600 C   0  0  0  0  0  0  0  0  0  0  0  0
   22.9380   13.2220   23.6940 C   0  0  0  0  0  0  0  0  0  0  0  0
   22.6110   12.3550   22.6760 C   0  0  0  0  0  0  0  0  0  0  0  0
   22.5110   10.9960   22.9450 C   0  0  0  0  0  0  0  0  0  0  0  0
   22.1600   10.0520   21.9780 N   0  0  0  0  0  0  0  0  0  0  0  0
   21.8530   10.3640   20.5920 C   0  0  0  0  0  0  0  0  0  0  0  0
   23.0470   10.7740   19.7600 C   0  0  0  0  0  0  0  0  0  0  0  0
   22.8560   11.2770   18.4860 C   0  0  0  0  0  0  0  0  0  0  0  0
   23.9320   11.6460   17.7080 C   0  0  0  0  0  0  0  0  0  0  0  0
   25.2140   11.5390   18.1990 C   0  0  0  0  0  0  0  0  0  0  0  0
   25.4410   11.0420   19.4760 C   0  0  0  0  0  0  0  0  0  0  0  0
   24.3450   10.6650   20.2500 C   0  0  0  0  0  0  0  0  0  0  0  0
   26.8260   10.9600   20.0190 C   0  0  0  0  0  0  0  0  0  0  0  0
   27.7760   11.9250   19.7120 C   0  0  0  0  0  0  0  0  0  0  0  0
   29.0390   11.8270   20.2490 C   0  0  0  0  0  0  0  0  0  0  0  0
   29.3240   10.7880   21.1080 C   0  0  0  0  0  0  0  0  0  0  0  0
   28.4370    9.8420   21.4290 N   0  0  0  0  0  0  0  0  0  0  0  0
   27.2090    9.9520   20.9020 C   0  0  0  0  0  0  0  0  0  0  0  0
   22.7820    8.9930   25.5100 H   0  0  0  0  0  0  0  0  0  0  0  0
   22.4650    8.6090   23.9290 H   0  0  0  0  0  0  0  0  0  0  0  0
   23.4370   13.3970   25.7580 H   0  0  0  0  0  0  0  0  0  0  0  0
   23.0240   14.2820   23.5020 H   0  0  0  0  0  0  0  0  0  0  0  0
   22.4210   12.7260   21.6820 H   0  0  0  0  0  0  0  0  0  0  0  0
   22.1250    9.1230   22.2180 H   0  0  0  0  0  0  0  0  0  0  0  0
   21.3910    9.4900   20.1350 H   0  0  0  0  0  0  0  0  0  0  0  0
   21.1190   11.1690   20.5740 H   0  0  0  0  0  0  0  0  0  0  0  0
   21.8560   11.3530   18.0900 H   0  0  0  0  0  0  0  0  0  0  0  0
   23.7680   12.0280   16.7150 H   0  0  0  0  0  0  0  0  0  0  0  0
   26.0500   11.8440   17.5890 H   0  0  0  0  0  0  0  0  0  0  0  0
   24.5050   10.2910   21.2480 H   0  0  0  0  0  0  0  0  0  0  0  0
   27.5280   12.7370   19.0460 H   0  0  0  0  0  0  0  0  0  0  0  0
   29.7920   12.5640   20.0130 H   0  0  0  0  0  0  0  0  0  0  0  0
   30.3130   10.6950   21.5310 H   0  0  0  0  0  0  0  0  0  0  0  0
   26.5000    9.1850   21.1740 H   0  0  0  0  0  0  0  0  0  0  0  0
  1  2  1  0  0  0  0
  1 22  1  0  0  0  0
  1 23  1  0  0  0  0
  2  3  1  0  0  0  0
  2  7  2  0  0  0  0
  3  4  2  0  0  0  0
  4  5  1  0  0  0  0
  4 24  1  0  0  0  0
  5  6  2  0  0  0  0
  5 25  1  0  0  0  0
  6  7  1  0  0  0  0
  6 26  1  0  0  0  0
  7  8  1  0  0  0  0
  8  9  1  0  0  0  0
  8 27  1  0  0  0  0
  9 10  1  0  0  0  0
  9 28  1  0  0  0  0
  9 29  1  0  0  0  0
 10 11  1  0  0  0  0
 10 15  2  0  0  0  0
 11 12  2  0  0  0  0
 11 30  1  0  0  0  0
 12 13  1  0  0  0  0
 12 31  1  0  0  0  0
 13 14  2  0  0  0  0
 13 32  1  0  0  0  0
 14 15  1  0  0  0  0
 14 16  1  0  0  0  0
 15 33  1  0  0  0  0
 16 17  1  0  0  0  0
 16 21  2  0  0  0  0
 17 18  2  0  0  0  0
 17 34  1  0  0  0  0
 18 19  1  0  0  0  0
 18 35  1  0  0  0  0
 19 20  2  0  0  0  0
 19 36  1  0  0  0  0
 20 21  1  0  0  0  0
 21 37  1  0  0  0  0
M  END
>  <PARENT_CMPD_ID>
2OHR

>  <STANDARD_TYPE>
IC50

>  <RELATION>
=

>  <STANDARD_VALUE>
100

>  <STANDARD_UNITS>
uM

>  <COMPOUND_KEY>
6a

>  <PUBMED_ID>
17315857

>  <JOURNAL>
J.Med.Chem.

>  <YEAR>
2007

>  <VOLUME>
50

>  <FIRST_PAGE>
1124

>  <Company>
Astex

>  <Resolution>
2.25

>  <idx>
189

>  <Model>
Train

>  <target>
4

>  <des_pred_mlr>
5.1101999

>  <RF_Canvas>
3.926748

>  <DNN_Canvas>
4.0948143

>  <pred_CoMFA>
4.1357002

>  <pred_COMSIA>
4.6620002

>  <pred_abm5>
3.9351072

>  <pred_ff8>
4.5739484

>  <pred_gau6>
3.7444856

>  <CID>
BACE_189

>  <active>
0

>  <des_class_bayes>
0

>  <maacs_class_bayes>
0

>  <radial_class_bayes>
0

>  <dend_class_bayes>
0

>  <molprint_class_bayes>
0

>  <RF_canvas>
0

>  <DNN_canvas>
0

$$$$
3UDK_9069
  MOE2015           3D

 44 47  0  0  1  0  0  0  0  0999 V2000
   24.5540   10.4700   19.0310 C   0  0  0  0  0  0  0  0  0  0  0  0
   25.0730    9.7210   18.4510 H   0  0  0  0  0  0  0  0  0  0  0  0
   24.5260   11.7780   18.5830 C   0  0  0  0  0  0  0  0  0  0  0  0
   25.0040   12.0310   17.6480 H   0  0  0  0  0  0  0  0  0  0  0  0
   23.9300   10.1070   20.2060 C   0  0  0  0  0  0  0  0  0  0  0  0
   23.9490    9.0860   20.5570 H   0  0  0  0  0  0  0  0  0  0  0  0
   23.8960   12.7650   19.3130 C   0  0  0  0  0  0  0  0  0  0  0  0
   23.8830   13.7920   18.9780 H   0  0  0  0  0  0  0  0  0  0  0  0
   23.2830   11.0910   20.9140 C   0  0  0  0  0  0  0  0  0  0  0  0
   23.2870   12.3860   20.4820 C   0  0  0  0  0  0  0  0  0  0  0  0
   22.1320   12.4200   22.4210 C   0  0  0  0  0  0  0  0  0  0  0  0
   20.5210   10.4830   24.4600 C   0  0  0  0  0  0  0  0  0  0  0  0
   21.7640   12.7530   26.9090 C   0  0  0  0  0  0  0  0  0  0  0  0
   22.6470   12.1150   26.9280 H   0  0  0  0  0  0  0  0  0  0  0  0
   21.9700   13.6410   26.3120 H   0  0  0  0  0  0  0  0  0  0  0  0
   19.7090   11.2560   27.1930 C   0  0  0  0  0  0  0  0  0  0  0  0
   18.7260   11.1640   26.7300 H   0  0  0  0  0  0  0  0  0  0  0  0
   20.1120   10.2630   27.3900 H   0  0  0  0  0  0  0  0  0  0  0  0
   21.3790   10.0900   22.1970 C   0  0  0  0  0  0  0  0  0  0  0  0
   20.4750   10.6500   21.9610 H   0  0  0  0  0  0  0  0  0  0  0  0
   21.5090    9.2870   21.4710 H   0  0  0  0  0  0  0  0  0  0  0  0
   23.4950   10.5340   23.3170 C   0  0  0  0  0  0  0  0  0  0  0  0
   23.7330   11.3600   23.9860 H   0  0  0  0  0  0  0  0  0  0  0  0
   24.4170   10.1220   22.9060 H   0  0  0  0  0  0  0  0  0  0  0  0
   21.4730   13.1960   28.3280 C   0  0  0  0  0  0  0  0  0  0  0  0
   20.8020   14.0550   28.3060 H   0  0  0  0  0  0  0  0  0  0  0  0
   22.4070   13.4760   28.8150 H   0  0  0  0  0  0  0  0  0  0  0  0
   19.5650   11.9940   28.5050 C   0  0  0  0  0  0  0  0  0  0  0  0
   18.9350   11.4220   29.1860 H   0  0  0  0  0  0  0  0  0  0  0  0
   19.1180   12.9730   28.3330 H   0  0  0  0  0  0  0  0  0  0  0  0
   21.3110    9.5370   23.5930 C   0  0  3  0  0  0  0  0  0  0  0  0
   20.8290    8.5610   23.6500 H   0  0  0  0  0  0  0  0  0  0  0  0
   20.6360   11.9810   26.2360 C   0  0  0  0  0  0  0  0  0  0  0  0
   20.0150   12.6850   25.6810 H   0  0  0  0  0  0  0  0  0  0  0  0
   22.5770   10.9960   22.2070 C   0  0  3  0  0  0  0  0  0  0  0  0
   22.5810   13.1960   21.3690 N   0  0  0  0  0  0  0  0  0  0  0  0
   22.4230   14.1880   21.2610 H   0  0  0  0  0  0  0  0  0  0  0  0
   22.7290    9.4860   24.0340 N   0  3  0  0  0  0  0  0  0  0  0  0
   22.7800    9.6500   25.0290 H   0  0  0  0  0  0  0  0  0  0  0  0
   23.1170    8.5780   23.8220 H   0  0  0  0  0  0  0  0  0  0  0  0
   21.4610   12.7940   23.3720 O   0  0  0  0  0  0  0  0  0  0  0  0
   19.3530   10.7820   24.2720 O   0  0  0  0  0  0  0  0  0  0  0  0
   20.8620   12.1450   29.0580 O   0  0  0  0  0  0  0  0  0  0  0  0
   21.2960   10.9830   25.4620 O   0  0  0  0  0  0  0  0  0  0  0  0
  1  2  1  0  0  0  0
  1  3  2  0  0  0  0
  1  5  1  0  0  0  0
  3  4  1  0  0  0  0
  3  7  1  0  0  0  0
  5  6  1  0  0  0  0
  5  9  2  0  0  0  0
  7  8  1  0  0  0  0
  7 10  2  0  0  0  0
  9 10  1  0  0  0  0
  9 35  1  0  0  0  0
 10 36  1  0  0  0  0
 11 35  1  0  0  0  0
 11 36  1  0  0  0  0
 11 41  2  0  0  0  0
 12 31  1  0  0  0  0
 12 42  2  0  0  0  0
 12 44  1  0  0  0  0
 13 14  1  0  0  0  0
 13 15  1  0  0  0  0
 13 25  1  0  0  0  0
 13 33  1  0  0  0  0
 16 17  1  0  0  0  0
 16 18  1  0  0  0  0
 16 28  1  0  0  0  0
 16 33  1  0  0  0  0
 19 20  1  0  0  0  0
 19 21  1  0  0  0  0
 19 31  1  0  0  0  0
 19 35  1  0  0  0  0
 22 23  1  0  0  0  0
 22 24  1  0  0  0  0
 22 35  1  0  0  0  0
 22 38  1  0  0  0  0
 25 26  1  0  0  0  0
 25 27  1  0  0  0  0
 25 43  1  0  0  0  0
 28 29  1  0  0  0  0
 28 30  1  0  0  0  0
 28 43  1  0  0  0  0
 31 32  1  0  0  0  0
 31 38  1  0  0  0  0
 33 34  1  0  0  0  0
 33 44  1  0  0  0  0
 36 37  1  0  0  0  0
 38 39  1  0  0  0  0
 38 40  1  0  0  0  0
M  CHG  1  38   1
M  END
>  <PARENT_CMPD_ID>
3UDK

>  <STANDARD_TYPE>
IC50

>  <RELATION>
=

>  <STANDARD_VALUE>
114

>  <STANDARD_UNITS>
uM

>  <COMPOUND_KEY>
6

>  <PUBMED_ID>
22468999

>  <JOURNAL>
J.Med.Chem.

>  <YEAR>
2012

>  <VOLUME>
55

>  <FIRST_PAGE>
9069

>  <Company>
Pfizer

>  <Resolution>
2.51

>  <idx>
190

>  <Model>
Train

>  <target>
3.9430952

>  <des_pred_mlr>
4.4034801

>  <RF_Canvas>
4.2893496

>  <DNN_Canvas>
3.7555983

>  <pred_CoMFA>
3.4718001

>  <pred_COMSIA>
3.7379

>  <pred_abm5>
3.8198812

>  <pred_ff8>
4.5160928

>  <pred_gau6>
3.4233346

>  <CID>
BACE_190

>  <active>
0

>  <des_class_bayes>
0

>  <maacs_class_bayes>
0

>  <radial_class_bayes>
0

>  <dend_class_bayes>
0

>  <molprint_class_bayes>
0

>  <RF_canvas>
0

>  <DNN_canvas>
0

$$$$
2VA5_5912
  MOE2015           3D

 33 35  0  0  0  0  0  0  0  0999 V2000
   23.1400    9.0010   24.3700 N   0  0  0  0  0  0  0  0  0  0  0  0
   22.9800   10.0250   23.5020 C   0  0  0  0  0  0  0  0  0  0  0  0
   22.7270   12.2720   23.1920 C   0  0  0  0  0  0  0  0  0  0  0  0
   22.6750   12.0660   21.8250 C   0  0  0  0  0  0  0  0  0  0  0  0
   22.7830   10.7730   21.3500 C   0  0  0  0  0  0  0  0  0  0  0  0
   22.7260   10.4870   19.8720 C   0  0  0  0  0  0  0  0  0  0  0  0
   23.9360    9.7320   19.3630 C   0  0  0  0  0  0  0  0  0  0  0  0
   25.2360   10.4910   19.4770 C   0  0  0  0  0  0  0  0  0  0  0  0
   25.4570   11.6270   18.7030 C   0  0  0  0  0  0  0  0  0  0  0  0
   26.6540   12.3170   18.7730 C   0  0  0  0  0  0  0  0  0  0  0  0
   27.6570   11.8440   19.6100 C   0  0  0  0  0  0  0  0  0  0  0  0
   28.9550   12.2820   19.9180 C   0  0  0  0  0  0  0  0  0  0  0  0
   29.4950   11.3980   20.8500 C   0  0  0  0  0  0  0  0  0  0  0  0
   28.5830   10.4500   21.1110 N   0  0  0  0  0  0  0  0  0  0  0  0
   27.4500   10.6980   20.3670 C   0  0  0  0  0  0  0  0  0  0  0  0
   26.2460   10.0120   20.3050 C   0  0  0  0  0  0  0  0  0  0  0  0
   22.9290    9.7300   22.1820 N   0  0  0  0  0  0  0  0  0  0  0  0
   22.8830   11.2510   24.0440 N   0  0  0  0  0  0  0  0  0  0  0  0
   22.6200   13.5300   23.6980 O   0  0  0  0  0  0  0  0  0  0  0  0
   23.2170    8.0550   24.0260 H   0  0  0  0  0  0  0  0  0  0  0  0
   23.1830    9.1820   25.3630 H   0  0  0  0  0  0  0  0  0  0  0  0
   22.5530   12.8960   21.1450 H   0  0  0  0  0  0  0  0  0  0  0  0
   22.6590   11.4350   19.3380 H   0  0  0  0  0  0  0  0  0  0  0  0
   21.8360    9.8920   19.6680 H   0  0  0  0  0  0  0  0  0  0  0  0
   23.7720    9.4930   18.3120 H   0  0  0  0  0  0  0  0  0  0  0  0
   24.0280    8.8090   19.9360 H   0  0  0  0  0  0  0  0  0  0  0  0
   24.6810   11.9750   18.0370 H   0  0  0  0  0  0  0  0  0  0  0  0
   26.8070   13.2100   18.1860 H   0  0  0  0  0  0  0  0  0  0  0  0
   29.4480   13.1500   19.5060 H   0  0  0  0  0  0  0  0  0  0  0  0
   30.4800   11.4650   21.2880 H   0  0  0  0  0  0  0  0  0  0  0  0
   28.7070    9.6780   21.7500 H   0  0  0  0  0  0  0  0  0  0  0  0
   26.0950    9.1180   20.8920 H   0  0  0  0  0  0  0  0  0  0  0  0
   22.9260   11.3950   25.0430 H   0  0  0  0  0  0  0  0  0  0  0  0
  1  2  1  0  0  0  0
  1 20  1  0  0  0  0
  1 21  1  0  0  0  0
  2 17  2  0  0  0  0
  2 18  1  0  0  0  0
  3  4  1  0  0  0  0
  3 18  1  0  0  0  0
  3 19  2  0  0  0  0
  4  5  2  0  0  0  0
  4 22  1  0  0  0  0
  5  6  1  0  0  0  0
  5 17  1  0  0  0  0
  6  7  1  0  0  0  0
  6 23  1  0  0  0  0
  6 24  1  0  0  0  0
  7  8  1  0  0  0  0
  7 25  1  0  0  0  0
  7 26  1  0  0  0  0
  8  9  1  0  0  0  0
  8 16  2  0  0  0  0
  9 10  2  0  0  0  0
  9 27  1  0  0  0  0
 10 11  1  0  0  0  0
 10 28  1  0  0  0  0
 11 12  1  0  0  0  0
 11 15  2  0  0  0  0
 12 13  2  0  0  0  0
 12 29  1  0  0  0  0
 13 14  1  0  0  0  0
 13 30  1  0  0  0  0
 14 15  1  0  0  0  0
 14 31  1  0  0  0  0
 15 16  1  0  0  0  0
 16 32  1  0  0  0  0
 18 33  1  0  0  0  0
M  END
>  <PARENT_CMPD_ID>
2VA5

>  <STANDARD_TYPE>
IC50

>  <RELATION>
=

>  <STANDARD_VALUE>
130

>  <STANDARD_UNITS>
uM

>  <COMPOUND_KEY>
8c

>  <PUBMED_ID>
17985862

>  <JOURNAL>
J.Med.Chem.

>  <YEAR>
2007

>  <VOLUME>
50

>  <FIRST_PAGE>
5912

>  <Company>
AstraZeneca

>  <Resolution>
2.75

>  <idx>
191

>  <Model>
Train

>  <target>
3.8860567

>  <des_pred_mlr>
4.8565502

>  <RF_Canvas>
3.7876256

>  <DNN_Canvas>
4.1395755

>  <pred_CoMFA>
4.0391002

>  <pred_COMSIA>
4.3603001

>  <pred_abm5>
3.7399125

>  <pred_ff8>
5.4341822

>  <pred_gau6>
4.1181493

>  <CID>
BACE_191

>  <active>
0

>  <des_class_bayes>
0

>  <maacs_class_bayes>
0

>  <radial_class_bayes>
0

>  <dend_class_bayes>
0

>  <molprint_class_bayes>
0

>  <RF_canvas>
0

>  <DNN_canvas>
0

$$$$
3KMX_942
  MOE2015           3D

 35 35  0  0  0  0  0  0  0  0999 V2000
   24.3950   11.5820   20.1600 C   0  0  0  0  0  0  0  0  0  0  0  0
   22.4020    9.1450   24.6470 N   0  0  0  0  0  0  0  0  0  0  0  0
   25.5060   12.1520   19.5210 O   0  0  0  0  0  0  0  0  0  0  0  0
   20.3640   10.8580   23.6140 S   0  0  0  0  0  0  0  0  0  0  0  0
   23.0750   13.7750   19.2520 Cl  0  0  0  0  0  0  0  0  0  0  0  0
   24.4780   10.3390   20.8680 C   0  0  0  0  0  0  0  0  0  0  0  0
   21.7490   11.2090   25.7360 N   0  3  0  0  0  0  0  0  0  0  0  0
   22.4280   11.0520   26.4670 H   0  0  0  0  0  0  0  0  0  0  0  0
   21.1670   12.0340   25.7560 H   0  0  0  0  0  0  0  0  0  0  0  0
   23.3310    9.7980   21.5180 C   0  0  0  0  0  0  0  0  0  0  0  0
   22.0860   10.4890   21.4650 C   0  0  0  0  0  0  0  0  0  0  0  0
   21.9950   11.7280   20.7640 C   0  0  0  0  0  0  0  0  0  0  0  0
   23.1440   12.2640   20.1170 C   0  0  0  0  0  0  0  0  0  0  0  0
   26.6170   11.2670   19.3570 C   0  0  0  0  0  0  0  0  0  0  0  0
   27.7730   11.7340   20.2400 C   0  0  0  0  0  0  0  0  0  0  0  0
   28.6040   10.5590   20.7220 C   0  0  0  0  0  0  0  0  0  0  0  0
   29.4370   10.9000   21.9610 C   0  0  0  0  0  0  0  0  0  0  0  0
   20.8640    9.8940   22.1390 C   0  0  0  0  0  0  0  0  0  0  0  0
   21.6200   10.3180   24.7340 C   0  0  0  0  0  0  0  0  0  0  0  0
   23.0940    8.9450   25.3550 H   0  0  0  0  0  0  0  0  0  0  0  0
   22.2690    8.5060   23.8760 H   0  0  0  0  0  0  0  0  0  0  0  0
   25.4170    9.8080   20.9090 H   0  0  0  0  0  0  0  0  0  0  0  0
   23.4060    8.8620   22.0520 H   0  0  0  0  0  0  0  0  0  0  0  0
   21.0550   12.2590   20.7240 H   0  0  0  0  0  0  0  0  0  0  0  0
   26.9330   11.2690   18.3140 H   0  0  0  0  0  0  0  0  0  0  0  0
   26.3240   10.2580   19.6460 H   0  0  0  0  0  0  0  0  0  0  0  0
   27.3700   12.2630   21.1040 H   0  0  0  0  0  0  0  0  0  0  0  0
   28.4090   12.4080   19.6660 H   0  0  0  0  0  0  0  0  0  0  0  0
   29.2770   10.2550   19.9210 H   0  0  0  0  0  0  0  0  0  0  0  0
   27.9350    9.7340   20.9670 H   0  0  0  0  0  0  0  0  0  0  0  0
   30.1120   11.7240   21.7300 H   0  0  0  0  0  0  0  0  0  0  0  0
   30.0180   10.0280   22.2590 H   0  0  0  0  0  0  0  0  0  0  0  0
   28.7740   11.1910   22.7760 H   0  0  0  0  0  0  0  0  0  0  0  0
   20.0380    9.8840   21.4270 H   0  0  0  0  0  0  0  0  0  0  0  0
   21.0920    8.8730   22.4450 H   0  0  0  0  0  0  0  0  0  0  0  0
  1  3  1  0  0  0  0
  1  6  1  0  0  0  0
  1 13  2  0  0  0  0
  2 19  1  0  0  0  0
  2 20  1  0  0  0  0
  2 21  1  0  0  0  0
  3 14  1  0  0  0  0
  4 18  1  0  0  0  0
  4 19  1  0  0  0  0
  5 13  1  0  0  0  0
  6 10  2  0  0  0  0
  6 22  1  0  0  0  0
  7  8  1  0  0  0  0
  7  9  1  0  0  0  0
  7 19  2  0  0  0  0
 10 11  1  0  0  0  0
 10 23  1  0  0  0  0
 11 12  2  0  0  0  0
 11 18  1  0  0  0  0
 12 13  1  0  0  0  0
 12 24  1  0  0  0  0
 14 15  1  0  0  0  0
 14 25  1  0  0  0  0
 14 26  1  0  0  0  0
 15 16  1  0  0  0  0
 15 27  1  0  0  0  0
 15 28  1  0  0  0  0
 16 17  1  0  0  0  0
 16 29  1  0  0  0  0
 16 30  1  0  0  0  0
 17 31  1  0  0  0  0
 17 32  1  0  0  0  0
 17 33  1  0  0  0  0
 18 34  1  0  0  0  0
 18 35  1  0  0  0  0
M  CHG  1   7   1
M  END
>  <PARENT_CMPD_ID>
3KMX

>  <STANDARD_TYPE>
IC50

>  <RELATION>
=

>  <STANDARD_VALUE>
210

>  <STANDARD_UNITS>
uM

>  <COMPOUND_KEY>
3

>  <PUBMED_ID>
20043700

>  <JOURNAL>
J.Med.Chem.

>  <YEAR>
2010

>  <VOLUME>
53

>  <FIRST_PAGE>
942

>  <Company>
Schering

>  <Resolution>
1.7

>  <idx>
192

>  <Model>
Train

>  <target>
3.6777806

>  <des_pred_mlr>
5.1779699

>  <RF_Canvas>
3.6089213

>  <DNN_Canvas>
4.2029805

>  <pred_CoMFA>
3.8469

>  <pred_COMSIA>
4.0832

>  <pred_abm5>
3.4092121

>  <pred_ff8>
5.5304995

>  <pred_gau6>
3.950681

>  <CID>
BACE_192

>  <active>
0

>  <des_class_bayes>
0

>  <maacs_class_bayes>
0

>  <radial_class_bayes>
0

>  <dend_class_bayes>
0

>  <molprint_class_bayes>
0

>  <RF_canvas>
0

>  <DNN_canvas>
0

$$$$
3KN0_942
  MOE2015           3D

 48 50  0  0  1  0  0  0  0  0999 V2000
   21.9620   13.4150   24.7170 C   0  0  0  0  0  0  0  0  0  0  0  0
   22.7580   11.3600   25.6680 N   0  0  0  0  0  0  0  0  0  0  0  0
   29.9210   10.8600   22.1960 O   0  0  0  0  0  0  0  0  0  0  0  0
   22.6560   12.7080   25.7280 C   0  0  0  0  0  0  0  0  0  0  0  0
   22.3350    9.2750   24.6330 N   0  0  0  0  0  0  0  0  0  0  0  0
   22.2000   10.6000   24.6340 C   0  0  0  0  0  0  0  0  0  0  0  0
   27.0390   11.3290   20.5190 N   0  3  3  0  0  0  0  0  0  0  0  0
   21.4900   11.2710   23.5930 C   0  0  0  0  0  0  0  0  0  0  0  0
   21.3830   12.6840   23.6540 C   0  0  0  0  0  0  0  0  0  0  0  0
   20.8550   10.5150   22.4310 C   0  0  0  0  0  0  0  0  0  0  0  0
   21.9220    9.8430   21.5110 C   0  0  0  0  0  0  0  0  0  0  0  0
   22.6700   10.8490   20.6370 C   0  0  0  0  0  0  0  0  0  0  0  0
   24.0500   10.6430   20.3720 C   0  0  0  0  0  0  0  0  0  0  0  0
   24.7710   11.5670   19.5620 C   0  0  0  0  0  0  0  0  0  0  0  0
   24.1100   12.7040   19.0150 C   0  0  0  0  0  0  0  0  0  0  0  0
   22.7270   12.9150   19.2770 C   0  0  0  0  0  0  0  0  0  0  0  0
   22.0070   11.9880   20.0870 C   0  0  0  0  0  0  0  0  0  0  0  0
   26.2380   11.3430   19.2830 C   0  0  0  0  0  0  0  0  0  0  0  0
   28.9690   10.1880   21.4960 C   0  0  0  0  0  0  0  0  0  0  0  0
   28.3570   10.7420   20.2330 C   0  0  0  0  0  0  0  0  0  0  0  0
   28.6520    9.0100   22.0490 C   0  0  0  0  0  0  0  0  0  0  0  0
   29.4780    8.9000   23.2250 C   0  0  0  0  0  0  0  0  0  0  0  0
   30.2030   10.0250   23.2530 C   0  0  0  0  0  0  0  0  0  0  0  0
   27.1880   12.6990   21.0470 C   0  0  0  0  0  0  0  0  0  0  0  0
   21.8760   14.4910   24.7570 H   0  0  0  0  0  0  0  0  0  0  0  0
   23.1050   13.2460   26.5500 H   0  0  0  0  0  0  0  0  0  0  0  0
   21.9310    8.7270   23.8870 H   0  0  0  0  0  0  0  0  0  0  0  0
   22.8410    8.8180   25.3780 H   0  0  0  0  0  0  0  0  0  0  0  0
   26.5700   10.7710   21.2180 H   0  0  0  0  0  0  0  0  0  0  0  0
   20.8500   13.2100   22.8760 H   0  0  0  0  0  0  0  0  0  0  0  0
   20.2690   11.2150   21.8350 H   0  0  0  0  0  0  0  0  0  0  0  0
   20.2000    9.7410   22.8320 H   0  0  0  0  0  0  0  0  0  0  0  0
   21.4200    9.1250   20.8630 H   0  0  0  0  0  0  0  0  0  0  0  0
   22.6450    9.3220   22.1390 H   0  0  0  0  0  0  0  0  0  0  0  0
   24.5550    9.7830   20.7860 H   0  0  0  0  0  0  0  0  0  0  0  0
   24.6570   13.4050   18.4020 H   0  0  0  0  0  0  0  0  0  0  0  0
   22.2230   13.7760   18.8630 H   0  0  0  0  0  0  0  0  0  0  0  0
   20.9570   12.1480   20.2850 H   0  0  0  0  0  0  0  0  0  0  0  0
   26.3580   10.3860   18.7750 H   0  0  0  0  0  0  0  0  0  0  0  0
   26.6000   12.1440   18.6380 H   0  0  0  0  0  0  0  0  0  0  0  0
   29.0120   11.5110   19.8230 H   0  0  0  0  0  0  0  0  0  0  0  0
   28.2420    9.9380   19.5060 H   0  0  0  0  0  0  0  0  0  0  0  0
   27.9290    8.2930   21.6890 H   0  0  0  0  0  0  0  0  0  0  0  0
   29.5060    8.0840   23.9320 H   0  0  0  0  0  0  0  0  0  0  0  0
   30.9290   10.2520   24.0200 H   0  0  0  0  0  0  0  0  0  0  0  0
   27.6930   13.3200   20.3070 H   0  0  0  0  0  0  0  0  0  0  0  0
   27.7780   12.6730   21.9630 H   0  0  0  0  0  0  0  0  0  0  0  0
   26.2030   13.1150   21.2600 H   0  0  0  0  0  0  0  0  0  0  0  0
  1  4  2  0  0  0  0
  1  9  1  0  0  0  0
  1 25  1  0  0  0  0
  2  4  1  0  0  0  0
  2  6  2  0  0  0  0
  3 19  1  0  0  0  0
  3 23  1  0  0  0  0
  4 26  1  0  0  0  0
  5  6  1  0  0  0  0
  5 27  1  0  0  0  0
  5 28  1  0  0  0  0
  6  8  1  0  0  0  0
  7 18  1  0  0  0  0
  7 20  1  0  0  0  0
  7 24  1  0  0  0  0
  7 29  1  0  0  0  0
  8  9  2  0  0  0  0
  8 10  1  0  0  0  0
  9 30  1  0  0  0  0
 10 11  1  0  0  0  0
 10 31  1  0  0  0  0
 10 32  1  0  0  0  0
 11 12  1  0  0  0  0
 11 33  1  0  0  0  0
 11 34  1  0  0  0  0
 12 13  1  0  0  0  0
 12 17  2  0  0  0  0
 13 14  2  0  0  0  0
 13 35  1  0  0  0  0
 14 15  1  0  0  0  0
 14 18  1  0  0  0  0
 15 16  2  0  0  0  0
 15 36  1  0  0  0  0
 16 17  1  0  0  0  0
 16 37  1  0  0  0  0
 17 38  1  0  0  0  0
 18 39  1  0  0  0  0
 18 40  1  0  0  0  0
 19 20  1  0  0  0  0
 19 21  2  0  0  0  0
 20 41  1  0  0  0  0
 20 42  1  0  0  0  0
 21 22  1  0  0  0  0
 21 43  1  0  0  0  0
 22 23  2  0  0  0  0
 22 44  1  0  0  0  0
 23 45  1  0  0  0  0
 24 46  1  0  0  0  0
 24 47  1  0  0  0  0
 24 48  1  0  0  0  0
M  CHG  1   7   1
M  END
>  <PARENT_CMPD_ID>
3KN0

>  <STANDARD_TYPE>
IC50

>  <RELATION>
=

>  <STANDARD_VALUE>
250

>  <STANDARD_UNITS>
uM

>  <COMPOUND_KEY>
5

>  <PUBMED_ID>
20043700

>  <JOURNAL>
J.Med.Chem.

>  <YEAR>
2010

>  <VOLUME>
53

>  <FIRST_PAGE>
942

>  <Company>
Schering

>  <Resolution>
1.9

>  <idx>
193

>  <Model>
Train

>  <target>
3.6020601

>  <des_pred_mlr>
5.8173499

>  <RF_Canvas>
4.0925508

>  <DNN_Canvas>
3.909173

>  <pred_CoMFA>
3.595

>  <pred_COMSIA>
5.0324998

>  <pred_abm5>
4.1760015

>  <pred_ff8>
3.998672

>  <pred_gau6>
3.8456118

>  <CID>
BACE_193

>  <active>
0

>  <des_class_bayes>
0

>  <maacs_class_bayes>
0

>  <radial_class_bayes>
0

>  <dend_class_bayes>
0

>  <molprint_class_bayes>
0

>  <RF_canvas>
0

>  <DNN_canvas>
0

$$$$
2OHM_1116
  MOE2015           3D

 28 29  0  0  0  0  0  0  0  0999 V2000
   22.6060    9.0580   24.6390 N   0  0  0  0  0  0  0  0  0  0  0  0
   22.6940   10.4020   24.2760 C   0  0  0  0  0  0  0  0  0  0  0  0
   23.1910   11.2760   25.1450 N   0  0  0  0  0  0  0  0  0  0  0  0
   23.3150   12.5700   24.8800 C   0  0  0  0  0  0  0  0  0  0  0  0
   22.9240   13.0750   23.6500 C   0  0  0  0  0  0  0  0  0  0  0  0
   22.3960   12.2050   22.7040 C   0  0  0  0  0  0  0  0  0  0  0  0
   22.2620   10.8510   23.0190 C   0  0  0  0  0  0  0  0  0  0  0  0
   21.7450    9.9620   22.0680 N   0  0  0  0  0  0  0  0  0  0  0  0
   21.7240   10.3570   20.6510 C   0  0  0  0  0  0  0  0  0  0  0  0
   23.1280   10.5110   20.0910 C   0  0  0  0  0  0  0  0  0  0  0  0
   24.2600   10.2170   20.8560 C   0  0  0  0  0  0  0  0  0  0  0  0
   25.5330   10.3590   20.3260 C   0  0  0  0  0  0  0  0  0  0  0  0
   25.6820   10.7950   19.0180 C   0  0  0  0  0  0  0  0  0  0  0  0
   24.5590   11.0880   18.2530 C   0  0  0  0  0  0  0  0  0  0  0  0
   23.2850   10.9500   18.7850 C   0  0  0  0  0  0  0  0  0  0  0  0
   22.2250    8.3840   23.9910 H   0  0  0  0  0  0  0  0  0  0  0  0
   22.9240    8.7590   25.5500 H   0  0  0  0  0  0  0  0  0  0  0  0
   23.7230   13.2340   25.6270 H   0  0  0  0  0  0  0  0  0  0  0  0
   23.0280   14.1270   23.4300 H   0  0  0  0  0  0  0  0  0  0  0  0
   22.0920   12.5720   21.7350 H   0  0  0  0  0  0  0  0  0  0  0  0
   21.3910    9.0600   22.3520 H   0  0  0  0  0  0  0  0  0  0  0  0
   21.2000   11.3080   20.5570 H   0  0  0  0  0  0  0  0  0  0  0  0
   21.1970    9.5930   20.0790 H   0  0  0  0  0  0  0  0  0  0  0  0
   24.1410    9.8750   21.8730 H   0  0  0  0  0  0  0  0  0  0  0  0
   26.4010   10.1320   20.9270 H   0  0  0  0  0  0  0  0  0  0  0  0
   26.6690   10.9070   18.5940 H   0  0  0  0  0  0  0  0  0  0  0  0
   24.6790   11.4260   17.2340 H   0  0  0  0  0  0  0  0  0  0  0  0
   22.4190   11.1840   18.1840 H   0  0  0  0  0  0  0  0  0  0  0  0
  1  2  1  0  0  0  0
  1 16  1  0  0  0  0
  1 17  1  0  0  0  0
  2  3  1  0  0  0  0
  2  7  2  0  0  0  0
  3  4  2  0  0  0  0
  4  5  1  0  0  0  0
  4 18  1  0  0  0  0
  5  6  2  0  0  0  0
  5 19  1  0  0  0  0
  6  7  1  0  0  0  0
  6 20  1  0  0  0  0
  7  8  1  0  0  0  0
  8  9  1  0  0  0  0
  8 21  1  0  0  0  0
  9 10  1  0  0  0  0
  9 22  1  0  0  0  0
  9 23  1  0  0  0  0
 10 11  1  0  0  0  0
 10 15  2  0  0  0  0
 11 12  2  0  0  0  0
 11 24  1  0  0  0  0
 12 13  1  0  0  0  0
 12 25  1  0  0  0  0
 13 14  2  0  0  0  0
 13 26  1  0  0  0  0
 14 15  1  0  0  0  0
 14 27  1  0  0  0  0
 15 28  1  0  0  0  0
M  END
>  <PARENT_CMPD_ID>
2OHM

>  <STANDARD_TYPE>
IC50

>  <RELATION>
=

>  <STANDARD_VALUE>
310

>  <STANDARD_UNITS>
uM

>  <COMPOUND_KEY>
3

>  <PUBMED_ID>
17315856

>  <JOURNAL>
J.Med.Chem.

>  <YEAR>
2007

>  <VOLUME>
50

>  <FIRST_PAGE>
1116

>  <Company>
Astex

>  <Resolution>
2.7

>  <idx>
194

>  <Model>
Train

>  <target>
3.5086384

>  <des_pred_mlr>
3.65289

>  <RF_Canvas>
3.4077797

>  <DNN_Canvas>
3.181

>  <pred_CoMFA>
3.1196001

>  <pred_COMSIA>
3.7307

>  <pred_abm5>
2.9527779

>  <pred_ff8>
4.3854399

>  <pred_gau6>
2.5956063

>  <CID>
BACE_194

>  <active>
0

>  <des_class_bayes>
0

>  <maacs_class_bayes>
0

>  <radial_class_bayes>
0

>  <dend_class_bayes>
0

>  <molprint_class_bayes>
0

>  <RF_canvas>
0

>  <DNN_canvas>
0

$$$$
3L5B_951
  MOE2015           3D

 40 41  0  0  1  0  0  0  0  0999 V2000
   22.2080   10.0220   23.7360 C   0  0  0  0  0  0  0  0  0  0  0  0
   21.7830    9.5140   22.5580 N   0  0  0  0  0  0  0  0  0  0  0  0
   21.7900    8.5480   22.2670 H   0  0  0  0  0  0  0  0  0  0  0  0
   21.3660   13.0080   22.3770 O   0  0  0  0  0  0  0  0  0  0  0  0
   21.5720   11.8320   22.6780 C   0  0  0  0  0  0  0  0  0  0  0  0
   22.0720   11.3590   23.8350 N   0  0  0  0  0  0  0  0  0  0  0  0
   21.2880   10.6350   21.7730 C   0  0  3  0  0  0  0  0  0  0  0  0
   22.7080    9.2870   24.7260 N   0  0  0  0  0  0  0  0  0  0  0  0
   22.7880    8.2860   24.6210 H   0  0  0  0  0  0  0  0  0  0  0  0
   22.0460   10.7690   20.4460 C   0  0  0  0  0  0  0  0  0  0  0  0
   19.7580   10.5540   21.6040 C   0  0  0  0  0  0  0  0  0  0  0  0
   22.3770   12.1630   25.0180 C   0  0  0  0  0  0  0  0  0  0  0  0
   21.1120   12.5530   25.7480 C   0  0  0  0  0  0  0  0  0  0  0  0
   20.7120   11.8440   26.9180 C   0  0  0  0  0  0  0  0  0  0  0  0
   19.4990   12.1920   27.5820 C   0  0  0  0  0  0  0  0  0  0  0  0
   18.6880   13.2540   27.0790 C   0  0  0  0  0  0  0  0  0  0  0  0
   19.0930   13.9690   25.9130 C   0  0  0  0  0  0  0  0  0  0  0  0
   20.3060   13.6200   25.2510 C   0  0  0  0  0  0  0  0  0  0  0  0
   24.3550    9.9810   21.0860 C   0  0  0  0  0  0  0  0  0  0  0  0
   24.0680   11.8110   19.3740 C   0  0  0  0  0  0  0  0  0  0  0  0
   23.5150   11.1620   20.6330 C   0  0  0  0  0  0  0  0  0  0  0  0
   18.1110   15.2590   25.2910 Cl  0  0  0  0  0  0  0  0  0  0  0  0
   21.5560   11.5330   19.8420 H   0  0  0  0  0  0  0  0  0  0  0  0
   22.0060    9.8120   19.9250 H   0  0  0  0  0  0  0  0  0  0  0  0
   19.2890   10.4610   22.5830 H   0  0  0  0  0  0  0  0  0  0  0  0
   19.5050    9.6860   20.9960 H   0  0  0  0  0  0  0  0  0  0  0  0
   19.3980   11.4580   21.1140 H   0  0  0  0  0  0  0  0  0  0  0  0
   22.9030   13.0660   24.7090 H   0  0  0  0  0  0  0  0  0  0  0  0
   23.0120   11.5840   25.6890 H   0  0  0  0  0  0  0  0  0  0  0  0
   21.3270   11.0440   27.3010 H   0  0  0  0  0  0  0  0  0  0  0  0
   19.1940   11.6520   28.4660 H   0  0  0  0  0  0  0  0  0  0  0  0
   17.7680   13.5160   27.5810 H   0  0  0  0  0  0  0  0  0  0  0  0
   20.6160   14.1650   24.3710 H   0  0  0  0  0  0  0  0  0  0  0  0
   23.9200    9.5510   21.9880 H   0  0  0  0  0  0  0  0  0  0  0  0
   25.3700   10.3170   21.2960 H   0  0  0  0  0  0  0  0  0  0  0  0
   24.3770    9.2280   20.2990 H   0  0  0  0  0  0  0  0  0  0  0  0
   23.4340   12.6500   19.0890 H   0  0  0  0  0  0  0  0  0  0  0  0
   24.0870   11.0790   18.5660 H   0  0  0  0  0  0  0  0  0  0  0  0
   25.0800   12.1690   19.5640 H   0  0  0  0  0  0  0  0  0  0  0  0
   23.5660   11.9040   21.4290 H   0  0  0  0  0  0  0  0  0  0  0  0
  1  2  1  0  0  0  0
  1  6  1  0  0  0  0
  1  8  2  0  0  0  0
  2  3  1  0  0  0  0
  2  7  1  0  0  0  0
  4  5  2  0  0  0  0
  5  6  1  0  0  0  0
  5  7  1  0  0  0  0
  6 12  1  0  0  0  0
  7 10  1  0  0  0  0
  7 11  1  0  0  0  0
  8  9  1  0  0  0  0
 10 21  1  0  0  0  0
 10 23  1  0  0  0  0
 10 24  1  0  0  0  0
 11 25  1  0  0  0  0
 11 26  1  0  0  0  0
 11 27  1  0  0  0  0
 12 13  1  0  0  0  0
 12 28  1  0  0  0  0
 12 29  1  0  0  0  0
 13 14  1  0  0  0  0
 13 18  2  0  0  0  0
 14 15  2  0  0  0  0
 14 30  1  0  0  0  0
 15 16  1  0  0  0  0
 15 31  1  0  0  0  0
 16 17  2  0  0  0  0
 16 32  1  0  0  0  0
 17 18  1  0  0  0  0
 17 22  1  0  0  0  0
 18 33  1  0  0  0  0
 19 21  1  0  0  0  0
 19 34  1  0  0  0  0
 19 35  1  0  0  0  0
 19 36  1  0  0  0  0
 20 21  1  0  0  0  0
 20 37  1  0  0  0  0
 20 38  1  0  0  0  0
 20 39  1  0  0  0  0
 21 40  1  0  0  0  0
M  END
>  <PARENT_CMPD_ID>
3L5B

>  <STANDARD_TYPE>
IC50

>  <RELATION>
=

>  <STANDARD_VALUE>
500

>  <STANDARD_UNITS>
uM

>  <COMPOUND_KEY>
23

>  <PUBMED_ID>
20043696

>  <JOURNAL>
J.Med.Chem.

>  <YEAR>
2010

>  <VOLUME>
53

>  <FIRST_PAGE>
951

>  <Company>
Schering

>  <Resolution>
1.8

>  <idx>
195

>  <Model>
Train

>  <target>
3.3010299

>  <des_pred_mlr>
5.0774698

>  <RF_Canvas>
3.7399383

>  <DNN_Canvas>
3.7073627

>  <pred_CoMFA>
3.7179

>  <pred_COMSIA>
4.8000998

>  <pred_abm5>
4.4241414

>  <pred_ff8>
4.4295626

>  <pred_gau6>
3.9735577

>  <CID>
BACE_195

>  <active>
0

>  <des_class_bayes>
0

>  <maacs_class_bayes>
0

>  <radial_class_bayes>
0

>  <dend_class_bayes>
0

>  <molprint_class_bayes>
0

>  <RF_canvas>
0

>  <DNN_canvas>
0

$$$$
2OHN_1116
  MOE2015           3D

 31 32  0  0  0  0  0  0  0  0999 V2000
   26.3780   12.8690   17.5010 F   0  0  0  0  0  0  0  0  0  0  0  0
   25.4020   12.3580   18.2820 C   0  0  0  0  0  0  0  0  0  0  0  0
   25.4550   11.0290   18.6740 C   0  0  0  0  0  0  0  0  0  0  0  0
   24.4530   10.5000   19.4600 C   0  0  0  0  0  0  0  0  0  0  0  0
   23.3870   11.2930   19.8700 C   0  0  0  0  0  0  0  0  0  0  0  0
   22.2940   10.7110   20.7260 C   0  0  0  0  0  0  0  0  0  0  0  0
   22.5690   10.8150   22.2080 C   0  0  0  0  0  0  0  0  0  0  0  0
   21.5750    9.9570   22.9900 C   0  0  0  0  0  0  0  0  0  0  0  0
   21.8920    9.9550   24.4750 C   0  0  0  0  0  0  0  0  0  0  0  0
   23.2890    9.5010   24.7060 N   0  3  0  0  0  0  0  0  0  0  0  0
   24.2590   10.4130   24.0340 C   0  0  0  0  0  0  0  0  0  0  0  0
   24.0050   10.4060   22.5380 C   0  0  0  0  0  0  0  0  0  0  0  0
   23.3430   12.6290   19.4800 C   0  0  0  0  0  0  0  0  0  0  0  0
   24.3440   13.1590   18.6900 C   0  0  0  0  0  0  0  0  0  0  0  0
   26.2750   10.4060   18.3520 H   0  0  0  0  0  0  0  0  0  0  0  0
   24.4920    9.4630   19.7600 H   0  0  0  0  0  0  0  0  0  0  0  0
   21.3650   11.2250   20.5080 H   0  0  0  0  0  0  0  0  0  0  0  0
   22.1630    9.6620   20.4680 H   0  0  0  0  0  0  0  0  0  0  0  0
   22.4320   11.8540   22.5040 H   0  0  0  0  0  0  0  0  0  0  0  0
   20.5680   10.3440   22.8360 H   0  0  0  0  0  0  0  0  0  0  0  0
   21.6110    8.9400   22.6160 H   0  0  0  0  0  0  0  0  0  0  0  0
   21.7670   10.9630   24.8730 H   0  0  0  0  0  0  0  0  0  0  0  0
   21.2050    9.2900   24.9920 H   0  0  0  0  0  0  0  0  0  0  0  0
   23.4630    9.5220   25.6840 H   0  0  0  0  0  0  0  0  0  0  0  0
   24.1400   11.4260   24.4160 H   0  0  0  0  0  0  0  0  0  0  0  0
   25.2700   10.0840   24.2320 H   0  0  0  0  0  0  0  0  0  0  0  0
   24.1910    9.4050   22.1460 H   0  0  0  0  0  0  0  0  0  0  0  0
   24.6950   11.0980   22.0560 H   0  0  0  0  0  0  0  0  0  0  0  0
   22.5180   13.2500   19.7950 H   0  0  0  0  0  0  0  0  0  0  0  0
   24.3040   14.1950   18.3860 H   0  0  0  0  0  0  0  0  0  0  0  0
   23.4030    8.5800   24.3450 H   0  0  0  0  0  0  0  0  0  0  0  0
  1  2  1  0  0  0  0
  2  3  1  0  0  0  0
  2 14  2  0  0  0  0
  3  4  2  0  0  0  0
  3 15  1  0  0  0  0
  4  5  1  0  0  0  0
  4 16  1  0  0  0  0
  5  6  1  0  0  0  0
  5 13  2  0  0  0  0
  6  7  1  0  0  0  0
  6 17  1  0  0  0  0
  6 18  1  0  0  0  0
  7  8  1  0  0  0  0
  7 12  1  0  0  0  0
  7 19  1  0  0  0  0
  8  9  1  0  0  0  0
  8 20  1  0  0  0  0
  8 21  1  0  0  0  0
  9 10  1  0  0  0  0
  9 22  1  0  0  0  0
  9 23  1  0  0  0  0
 10 11  1  0  0  0  0
 10 24  1  0  0  0  0
 10 31  1  0  0  0  0
 11 12  1  0  0  0  0
 11 25  1  0  0  0  0
 11 26  1  0  0  0  0
 12 27  1  0  0  0  0
 12 28  1  0  0  0  0
 13 14  1  0  0  0  0
 13 29  1  0  0  0  0
 14 30  1  0  0  0  0
M  CHG  1  10   1
M  END
>  <PARENT_CMPD_ID>
2OHN

>  <STANDARD_TYPE>
IC50

>  <RELATION>
=

>  <STANDARD_VALUE>
500

>  <STANDARD_UNITS>
uM

>  <COMPOUND_KEY>
4

>  <PUBMED_ID>
17315856

>  <JOURNAL>
J.Med.Chem.

>  <YEAR>
2007

>  <VOLUME>
50

>  <FIRST_PAGE>
1116

>  <Company>
Astex

>  <Resolution>
2.1500001

>  <idx>
196

>  <Model>
Train

>  <target>
3.3010299

>  <des_pred_mlr>
4.63025

>  <RF_Canvas>
3.2221785

>  <DNN_Canvas>
3.0551295

>  <pred_CoMFA>
3.5946

>  <pred_COMSIA>
3.8395

>  <pred_abm5>
3.2009416

>  <pred_ff8>
4.756289

>  <pred_gau6>
3.5700443

>  <CID>
BACE_196

>  <active>
0

>  <des_class_bayes>
0

>  <maacs_class_bayes>
1

>  <radial_class_bayes>
0

>  <dend_class_bayes>
0

>  <molprint_class_bayes>
0

>  <RF_canvas>
0

>  <DNN_canvas>
0

$$$$
3VV6_8838
  MOE2015           3D

 33 35  0  0  1  0  0  0  0  0999 V2000
   22.4890   13.6160   23.4190 O   0  0  0  0  0  0  0  0  0  0  0  0
   22.2840   12.3930   23.2690 C   0  0  0  0  0  0  0  0  0  0  0  0
   22.8220   11.4500   24.1810 N   0  0  0  0  0  0  0  0  0  0  0  0
   23.6390   11.9390   25.3000 C   0  0  0  0  0  0  0  0  0  0  0  0
   23.6820   13.0280   25.2700 H   0  0  0  0  0  0  0  0  0  0  0  0
   24.6470   11.5330   25.2180 H   0  0  0  0  0  0  0  0  0  0  0  0
   23.1940   11.6190   26.2420 H   0  0  0  0  0  0  0  0  0  0  0  0
   22.5840   10.0610   23.9600 C   0  0  0  0  0  0  0  0  0  0  0  0
   23.0940    9.1150   24.8020 N   0  0  0  0  0  0  0  0  0  0  0  0
   22.9060    8.1370   24.6360 H   0  0  0  0  0  0  0  0  0  0  0  0
   23.6590    9.3930   25.5910 H   0  0  0  0  0  0  0  0  0  0  0  0
   21.8240    9.6730   22.9000 N   0  0  0  0  0  0  0  0  0  0  0  0
   21.2950   10.5680   22.0090 C   0  0  0  0  0  0  0  0  0  0  0  0
   21.5130   11.9410   22.1960 C   0  0  0  0  0  0  0  0  0  0  0  0
   21.0820   12.6520   21.5070 H   0  0  0  0  0  0  0  0  0  0  0  0
   20.4560   10.0800   20.8710 C   0  0  3  0  0  0  0  0  0  0  0  0
   19.8700    9.3770   21.4630 H   0  0  0  0  0  0  0  0  0  0  0  0
   20.2070   11.1780   19.8270 C   0  0  0  0  0  0  0  0  0  0  0  0
   20.6470   12.1660   19.9610 H   0  0  0  0  0  0  0  0  0  0  0  0
   19.2240   11.2770   19.3660 H   0  0  0  0  0  0  0  0  0  0  0  0
   21.1000    9.9850   19.4740 C   0  0  3  0  0  0  0  0  0  0  0  0
   21.1180    9.2250   18.6930 H   0  0  0  0  0  0  0  0  0  0  0  0
   22.5580   10.2990   19.3900 C   0  0  0  0  0  0  0  0  0  0  0  0
   23.5050    9.4310   19.9610 C   0  0  0  0  0  0  0  0  0  0  0  0
   23.1710    8.5380   20.4670 H   0  0  0  0  0  0  0  0  0  0  0  0
   24.8730    9.7070   19.8830 C   0  0  0  0  0  0  0  0  0  0  0  0
   25.5900    9.0400   20.3380 H   0  0  0  0  0  0  0  0  0  0  0  0
   25.3050   10.8520   19.2120 C   0  0  0  0  0  0  0  0  0  0  0  0
   26.3600   11.0710   19.1410 H   0  0  0  0  0  0  0  0  0  0  0  0
   24.3740   11.7140   18.6330 C   0  0  0  0  0  0  0  0  0  0  0  0
   24.7140   12.6020   18.1210 H   0  0  0  0  0  0  0  0  0  0  0  0
   23.0030   11.4390   18.7090 C   0  0  0  0  0  0  0  0  0  0  0  0
   22.2910   12.1040   18.2440 H   0  0  0  0  0  0  0  0  0  0  0  0
  1  2  2  0  0  0  0
  2  3  1  0  0  0  0
  2 14  1  0  0  0  0
  3  4  1  0  0  0  0
  3  8  1  0  0  0  0
  4  5  1  0  0  0  0
  4  6  1  0  0  0  0
  4  7  1  0  0  0  0
  8  9  1  0  0  0  0
  8 12  2  0  0  0  0
  9 10  1  0  0  0  0
  9 11  1  0  0  0  0
 12 13  1  0  0  0  0
 13 14  2  0  0  0  0
 13 16  1  0  0  0  0
 14 15  1  0  0  0  0
 16 17  1  0  0  0  0
 16 18  1  0  0  0  0
 16 21  1  0  0  0  0
 18 19  1  0  0  0  0
 18 20  1  0  0  0  0
 18 21  1  0  0  0  0
 21 22  1  0  0  0  0
 21 23  1  0  0  0  0
 23 24  1  0  0  0  0
 23 32  2  0  0  0  0
 24 25  1  0  0  0  0
 24 26  2  0  0  0  0
 26 27  1  0  0  0  0
 26 28  1  0  0  0  0
 28 29  1  0  0  0  0
 28 30  2  0  0  0  0
 30 31  1  0  0  0  0
 30 32  1  0  0  0  0
 32 33  1  0  0  0  0
M  END
>  <PARENT_CMPD_ID>
3VV6

>  <STANDARD_TYPE>
IC50

>  <RELATION>
=

>  <STANDARD_VALUE>
619

>  <STANDARD_UNITS>
uM

>  <COMPOUND_KEY>
6

>  <PUBMED_ID>
22998419

>  <JOURNAL>
J.Med.Chem.

>  <YEAR>
2012

>  <VOLUME>
55

>  <FIRST_PAGE>
8838

>  <Company>
Shionogi

>  <Resolution>
2.05

>  <idx>
197

>  <Model>
Train

>  <target>
3.2083094

>  <des_pred_mlr>
5.6911602

>  <RF_Canvas>
3.5739846

>  <DNN_Canvas>
3.7276878

>  <pred_CoMFA>
4.0788999

>  <pred_COMSIA>
4.2716999

>  <pred_abm5>
3.9288678

>  <pred_ff8>
5.136178

>  <pred_gau6>
4.0922565

>  <CID>
BACE_197

>  <active>
0

>  <des_class_bayes>
0

>  <maacs_class_bayes>
0

>  <radial_class_bayes>
0

>  <dend_class_bayes>
0

>  <molprint_class_bayes>
0

>  <RF_canvas>
0

>  <DNN_canvas>
0

$$$$
3L59_951
  MOE2015           3D

 31 32  0  0  0  0  0  0  0  0999 V2000
   21.9070   10.3580   24.7520 C   0  0  0  0  0  0  0  0  0  0  0  0
   21.8400   10.9490   25.9610 N   0  0  0  0  0  0  0  0  0  0  0  0
   22.4010   10.7300   26.7720 H   0  0  0  0  0  0  0  0  0  0  0  0
   19.4290   12.5150   23.9210 O   0  0  0  0  0  0  0  0  0  0  0  0
   20.3210   11.8330   24.4320 C   0  0  0  0  0  0  0  0  0  0  0  0
   21.0340   10.8530   23.8530 N   0  0  0  0  0  0  0  0  0  0  0  0
   20.8040   11.9610   25.8710 C   0  0  0  0  0  0  0  0  0  0  0  0
   22.7500    9.3750   24.4550 N   0  0  0  0  0  0  0  0  0  0  0  0
   23.3900    9.0300   25.1560 H   0  0  0  0  0  0  0  0  0  0  0  0
   19.6010   11.6060   26.7540 C   0  0  0  0  0  0  0  0  0  0  0  0
   21.3790   13.3870   26.0670 C   0  0  0  0  0  0  0  0  0  0  0  0
   20.8950   10.4040   22.4690 C   0  0  0  0  0  0  0  0  0  0  0  0
   21.8570   11.1630   21.5790 C   0  0  0  0  0  0  0  0  0  0  0  0
   21.5930   12.5240   21.2390 C   0  0  0  0  0  0  0  0  0  0  0  0
   22.4990   13.2440   20.4030 C   0  0  0  0  0  0  0  0  0  0  0  0
   23.6680   12.6060   19.9080 C   0  0  0  0  0  0  0  0  0  0  0  0
   23.9360   11.2520   20.2440 C   0  0  0  0  0  0  0  0  0  0  0  0
   23.0330   10.5280   21.0790 C   0  0  0  0  0  0  0  0  0  0  0  0
   25.3600   10.4900   19.6340 Cl  0  0  0  0  0  0  0  0  0  0  0  0
   19.2790   10.5880   26.5370 H   0  0  0  0  0  0  0  0  0  0  0  0
   18.7840   12.2970   26.5500 H   0  0  0  0  0  0  0  0  0  0  0  0
   19.8860   11.6810   27.8030 H   0  0  0  0  0  0  0  0  0  0  0  0
   22.2250   13.5330   25.3950 H   0  0  0  0  0  0  0  0  0  0  0  0
   21.7090   13.5070   27.0990 H   0  0  0  0  0  0  0  0  0  0  0  0
   20.6070   14.1240   25.8450 H   0  0  0  0  0  0  0  0  0  0  0  0
   19.8740   10.5830   22.1320 H   0  0  0  0  0  0  0  0  0  0  0  0
   21.1150    9.3380   22.4120 H   0  0  0  0  0  0  0  0  0  0  0  0
   20.7050   13.0100   21.6150 H   0  0  0  0  0  0  0  0  0  0  0  0
   22.2960   14.2730   20.1470 H   0  0  0  0  0  0  0  0  0  0  0  0
   24.3530   13.1510   19.2760 H   0  0  0  0  0  0  0  0  0  0  0  0
   23.2400    9.4990   21.3330 H   0  0  0  0  0  0  0  0  0  0  0  0
  1  2  1  0  0  0  0
  1  6  1  0  0  0  0
  1  8  2  0  0  0  0
  2  3  1  0  0  0  0
  2  7  1  0  0  0  0
  4  5  2  0  0  0  0
  5  6  1  0  0  0  0
  5  7  1  0  0  0  0
  6 12  1  0  0  0  0
  7 10  1  0  0  0  0
  7 11  1  0  0  0  0
  8  9  1  0  0  0  0
 10 20  1  0  0  0  0
 10 21  1  0  0  0  0
 10 22  1  0  0  0  0
 11 23  1  0  0  0  0
 11 24  1  0  0  0  0
 11 25  1  0  0  0  0
 12 13  1  0  0  0  0
 12 26  1  0  0  0  0
 12 27  1  0  0  0  0
 13 14  1  0  0  0  0
 13 18  2  0  0  0  0
 14 15  2  0  0  0  0
 14 28  1  0  0  0  0
 15 16  1  0  0  0  0
 15 29  1  0  0  0  0
 16 17  2  0  0  0  0
 16 30  1  0  0  0  0
 17 18  1  0  0  0  0
 17 19  1  0  0  0  0
 18 31  1  0  0  0  0
M  END
>  <PARENT_CMPD_ID>
3L59

>  <STANDARD_TYPE>
IC50

>  <RELATION>
=

>  <STANDARD_VALUE>
700

>  <STANDARD_UNITS>
uM

>  <COMPOUND_KEY>
10

>  <PUBMED_ID>
20043696

>  <JOURNAL>
J.Med.Chem.

>  <YEAR>
2010

>  <VOLUME>
53

>  <FIRST_PAGE>
951

>  <Company>
Schering

>  <Resolution>
2

>  <idx>
198

>  <Model>
Train

>  <target>
3.154902

>  <des_pred_mlr>
2.6995101

>  <RF_Canvas>
3.2716446

>  <DNN_Canvas>
3.3686993

>  <pred_CoMFA>
3.2432001

>  <pred_COMSIA>
2.7974999

>  <pred_abm5>
2.7458954

>  <pred_ff8>
5.2385421

>  <pred_gau6>
3.1826527

>  <CID>
BACE_198

>  <active>
0

>  <des_class_bayes>
0

>  <maacs_class_bayes>
0

>  <radial_class_bayes>
0

>  <dend_class_bayes>
0

>  <molprint_class_bayes>
0

>  <RF_canvas>
0

>  <DNN_canvas>
0

$$$$
3MSJ_5329
  MOE2015           3D

 27 28  0  0  0  0  0  0  0  0999 V2000
   19.4580   11.5280   20.8270 C   0  0  0  0  0  0  0  0  0  0  0  0
   19.2510   12.5790   21.7260 C   0  0  0  0  0  0  0  0  0  0  0  0
   20.2270   10.4280   21.1790 C   0  0  0  0  0  0  0  0  0  0  0  0
   19.8310   12.5430   22.9930 C   0  0  0  0  0  0  0  0  0  0  0  0
   20.7870   10.4160   22.4340 C   0  0  0  0  0  0  0  0  0  0  0  0
   20.6020   11.4430   23.3230 C   0  0  0  0  0  0  0  0  0  0  0  0
   21.5670    9.4800   22.9700 N   0  0  0  0  0  0  0  0  0  0  0  0
   21.8490    9.9380   24.1970 C   0  0  0  0  0  0  0  0  0  0  0  0
   21.2720   11.1350   24.4330 N   0  0  0  0  0  0  0  0  0  0  0  0
   22.6480    9.2250   25.0910 N   0  0  0  0  0  0  0  0  0  0  0  0
   21.3420   11.9470   25.6690 C   0  0  0  0  0  0  0  0  0  0  0  0
   20.5870   11.2830   26.8230 C   0  0  0  0  0  0  0  0  0  0  0  0
   21.1640   11.6140   28.1890 C   0  0  0  0  0  0  0  0  0  0  0  0
   21.0810   13.0020   28.4530 O   0  0  0  0  0  0  0  0  0  0  0  0
   18.7520   11.5840   19.2650 Cl  0  0  0  0  0  0  0  0  0  0  0  0
   18.6400   13.4210   21.4380 H   0  0  0  0  0  0  0  0  0  0  0  0
   20.3800    9.6100   20.4910 H   0  0  0  0  0  0  0  0  0  0  0  0
   19.6830   13.3500   23.6960 H   0  0  0  0  0  0  0  0  0  0  0  0
   22.8380    9.6010   26.0090 H   0  0  0  0  0  0  0  0  0  0  0  0
   23.0360    8.3330   24.8200 H   0  0  0  0  0  0  0  0  0  0  0  0
   20.9020   12.9250   25.4750 H   0  0  0  0  0  0  0  0  0  0  0  0
   22.3870   12.0690   25.9540 H   0  0  0  0  0  0  0  0  0  0  0  0
   20.6240   10.2020   26.6840 H   0  0  0  0  0  0  0  0  0  0  0  0
   19.5500   11.6170   26.7950 H   0  0  0  0  0  0  0  0  0  0  0  0
   22.2100   11.3080   28.2180 H   0  0  0  0  0  0  0  0  0  0  0  0
   20.6060   11.0720   28.9520 H   0  0  0  0  0  0  0  0  0  0  0  0
   21.5780   13.4580   27.7700 H   0  0  0  0  0  0  0  0  0  0  0  0
  1  2  2  0  0  0  0
  1  3  1  0  0  0  0
  1 15  1  0  0  0  0
  2  4  1  0  0  0  0
  2 16  1  0  0  0  0
  3  5  2  0  0  0  0
  3 17  1  0  0  0  0
  4  6  2  0  0  0  0
  4 18  1  0  0  0  0
  5  6  1  0  0  0  0
  5  7  1  0  0  0  0
  6  9  1  0  0  0  0
  7  8  2  0  0  0  0
  8  9  1  0  0  0  0
  8 10  1  0  0  0  0
  9 11  1  0  0  0  0
 10 19  1  0  0  0  0
 10 20  1  0  0  0  0
 11 12  1  0  0  0  0
 11 21  1  0  0  0  0
 11 22  1  0  0  0  0
 12 13  1  0  0  0  0
 12 23  1  0  0  0  0
 12 24  1  0  0  0  0
 13 14  1  0  0  0  0
 13 25  1  0  0  0  0
 13 26  1  0  0  0  0
 14 27  1  0  0  0  0
M  END
>  <PARENT_CMPD_ID>
3MSJ

>  <STANDARD_TYPE>
IC50

>  <RELATION>
=

>  <STANDARD_VALUE>
770

>  <STANDARD_UNITS>
uM

>  <COMPOUND_KEY>
3

>  <PUBMED_ID>
20656487

>  <JOURNAL>
Bioorg.Med.Chem.Lett.

>  <YEAR>
2010

>  <VOLUME>
20

>  <FIRST_PAGE>
5329

>  <Company>
Evotec

>  <Resolution>
1.8

>  <idx>
199

>  <Model>
Train

>  <target>
3.1135092

>  <des_pred_mlr>
3.0138299

>  <RF_Canvas>
3.1703455

>  <DNN_Canvas>
3.0935144

>  <pred_CoMFA>
3.3072

>  <pred_COMSIA>
2.7881

>  <pred_abm5>
3.3127229

>  <pred_ff8>
5.1461744

>  <pred_gau6>
2.9423606

>  <CID>
BACE_199

>  <active>
0

>  <des_class_bayes>
0

>  <maacs_class_bayes>
0

>  <radial_class_bayes>
0

>  <dend_class_bayes>
0

>  <molprint_class_bayes>
0

>  <RF_canvas>
0

>  <DNN_canvas>
0

$$$$
3HW1_10743
  MOE2015           3D

 30 32  0  0  0  0  0  0  0  0999 V2000
   21.8580    9.3460   25.3600 N   0  0  0  0  0  0  0  0  0  0  0  0
   21.4730   10.3390   24.4560 C   0  0  0  0  0  0  0  0  0  0  0  0
   21.2040    9.8910   23.1790 N   0  0  0  0  0  0  0  0  0  0  0  0
   20.8130   10.7720   22.2020 C   0  0  0  0  0  0  0  0  0  0  0  0
   20.5520   10.2880   20.9330 C   0  0  0  0  0  0  0  0  0  0  0  0
   20.1600   11.1610   19.9330 C   0  0  0  0  0  0  0  0  0  0  0  0
   21.3530   11.6900   24.7910 C   0  0  0  0  0  0  0  0  0  0  0  0
   20.9570   12.5820   23.7940 N   0  0  0  0  0  0  0  0  0  0  0  0
   20.6920   12.1270   22.5030 C   0  0  0  0  0  0  0  0  0  0  0  0
   20.2940   13.0020   21.4970 C   0  0  0  0  0  0  0  0  0  0  0  0
   20.0320   12.5130   20.2160 C   0  0  0  0  0  0  0  0  0  0  0  0
   21.6100   12.1760   26.1060 N   0  0  0  0  0  0  0  0  0  0  0  0
   20.9820   11.6000   27.3190 C   0  0  0  0  0  0  0  0  0  0  0  0
   20.3970   12.7360   28.1370 C   0  0  0  0  0  0  0  0  0  0  0  0
   20.7690   13.9970   27.4090 C   0  0  0  0  0  0  0  0  0  0  0  0
   21.8830   13.5890   26.4530 C   0  0  0  0  0  0  0  0  0  0  0  0
   22.0680    9.5890   26.3180 H   0  0  0  0  0  0  0  0  0  0  0  0
   21.9260    8.3850   25.0560 H   0  0  0  0  0  0  0  0  0  0  0  0
   20.6540    9.2330   20.7230 H   0  0  0  0  0  0  0  0  0  0  0  0
   19.9550   10.7920   18.9390 H   0  0  0  0  0  0  0  0  0  0  0  0
   20.1880   14.0560   21.7070 H   0  0  0  0  0  0  0  0  0  0  0  0
   19.7260   13.1950   19.4360 H   0  0  0  0  0  0  0  0  0  0  0  0
   21.7320   11.0710   27.9070 H   0  0  0  0  0  0  0  0  0  0  0  0
   20.1910   10.9070   27.0310 H   0  0  0  0  0  0  0  0  0  0  0  0
   20.8210   12.7380   29.1410 H   0  0  0  0  0  0  0  0  0  0  0  0
   19.3130   12.6400   28.2000 H   0  0  0  0  0  0  0  0  0  0  0  0
   21.1240   14.7530   28.1100 H   0  0  0  0  0  0  0  0  0  0  0  0
   19.9140   14.3860   26.8560 H   0  0  0  0  0  0  0  0  0  0  0  0
   21.8640   14.2110   25.5580 H   0  0  0  0  0  0  0  0  0  0  0  0
   22.8540   13.6810   26.9390 H   0  0  0  0  0  0  0  0  0  0  0  0
  1  2  1  0  0  0  0
  1 17  1  0  0  0  0
  1 18  1  0  0  0  0
  2  3  2  0  0  0  0
  2  7  1  0  0  0  0
  3  4  1  0  0  0  0
  4  5  2  0  0  0  0
  4  9  1  0  0  0  0
  5  6  1  0  0  0  0
  5 19  1  0  0  0  0
  6 11  2  0  0  0  0
  6 20  1  0  0  0  0
  7  8  2  0  0  0  0
  7 12  1  0  0  0  0
  8  9  1  0  0  0  0
  9 10  2  0  0  0  0
 10 11  1  0  0  0  0
 10 21  1  0  0  0  0
 11 22  1  0  0  0  0
 12 13  1  0  0  0  0
 12 16  1  0  0  0  0
 13 14  1  0  0  0  0
 13 23  1  0  0  0  0
 13 24  1  0  0  0  0
 14 15  1  0  0  0  0
 14 25  1  0  0  0  0
 14 26  1  0  0  0  0
 15 16  1  0  0  0  0
 15 27  1  0  0  0  0
 15 28  1  0  0  0  0
 16 29  1  0  0  0  0
 16 30  1  0  0  0  0
M  END
>  <PARENT_CMPD_ID>
3HW1

>  <STANDARD_TYPE>
IC50

>  <RELATION>
=

>  <STANDARD_VALUE>
870

>  <STANDARD_UNITS>
uM

>  <COMPOUND_KEY>
1

>  <PUBMED_ID>
19799414

>  <JOURNAL>
Biochemistry

>  <YEAR>
2009

>  <VOLUME>
48

>  <FIRST_PAGE>
10743

>  <Company>
Evotec

>  <Resolution>
2.48

>  <idx>
200

>  <Model>
Train

>  <target>
3.0604808

>  <des_pred_mlr>
3.8794501

>  <RF_Canvas>
3.2282045

>  <DNN_Canvas>
3.4921608

>  <pred_CoMFA>
2.7124

>  <pred_COMSIA>
3.0438001

>  <pred_abm5>
3.0087316

>  <pred_ff8>
4.3334651

>  <pred_gau6>
3.1431592

>  <CID>
BACE_200

>  <active>
0

>  <des_class_bayes>
0

>  <maacs_class_bayes>
0

>  <radial_class_bayes>
0

>  <dend_class_bayes>
0

>  <molprint_class_bayes>
0

>  <RF_canvas>
0

>  <DNN_canvas>
0

$$$$
3KMY_942
  MOE2015           3D

 29 30  0  0  0  0  0  0  0  0999 V2000
   21.6570   12.4960   25.8000 C   0  0  0  0  0  0  0  0  0  0  0  0
   22.0900   11.2260   25.6140 N   0  0  0  0  0  0  0  0  0  0  0  0
   20.8220   13.9930   17.5900 Cl  0  0  0  0  0  0  0  0  0  0  0  0
   21.9010   10.5530   24.4420 C   0  0  0  0  0  0  0  0  0  0  0  0
   22.3510    9.2770   24.3360 N   0  0  0  0  0  0  0  0  0  0  0  0
   21.2420   11.1610   23.3550 C   0  0  0  0  0  0  0  0  0  0  0  0
   20.7780   12.4900   23.5250 C   0  0  0  0  0  0  0  0  0  0  0  0
   20.9810   13.1740   24.7530 C   0  0  0  0  0  0  0  0  0  0  0  0
   21.0300   10.4370   22.0300 C   0  0  0  0  0  0  0  0  0  0  0  0
   22.3410   10.3780   21.1760 C   0  0  0  0  0  0  0  0  0  0  0  0
   22.6040   11.6820   20.4270 C   0  0  0  0  0  0  0  0  0  0  0  0
   23.7750   12.4360   20.7290 C   0  0  0  0  0  0  0  0  0  0  0  0
   24.0290   13.6670   20.0580 C   0  0  0  0  0  0  0  0  0  0  0  0
   23.1120   14.1470   19.0800 C   0  0  0  0  0  0  0  0  0  0  0  0
   21.9410   13.3960   18.7720 C   0  0  0  0  0  0  0  0  0  0  0  0
   21.6870   12.1610   19.4420 C   0  0  0  0  0  0  0  0  0  0  0  0
   21.8260   12.9920   26.7440 H   0  0  0  0  0  0  0  0  0  0  0  0
   22.2140    8.7630   23.4780 H   0  0  0  0  0  0  0  0  0  0  0  0
   22.8230    8.8420   25.1150 H   0  0  0  0  0  0  0  0  0  0  0  0
   20.2660   12.9860   22.7140 H   0  0  0  0  0  0  0  0  0  0  0  0
   20.6290   14.1860   24.8870 H   0  0  0  0  0  0  0  0  0  0  0  0
   20.2630   10.9620   21.4610 H   0  0  0  0  0  0  0  0  0  0  0  0
   20.6970    9.4190   22.2350 H   0  0  0  0  0  0  0  0  0  0  0  0
   22.2510    9.5690   20.4510 H   0  0  0  0  0  0  0  0  0  0  0  0
   23.1830   10.1790   21.8390 H   0  0  0  0  0  0  0  0  0  0  0  0
   24.4730   12.0730   21.4690 H   0  0  0  0  0  0  0  0  0  0  0  0
   24.9170   14.2360   20.2910 H   0  0  0  0  0  0  0  0  0  0  0  0
   23.3040   15.0800   18.5720 H   0  0  0  0  0  0  0  0  0  0  0  0
   20.8020   11.5890   19.2040 H   0  0  0  0  0  0  0  0  0  0  0  0
  1  2  1  0  0  0  0
  1  8  2  0  0  0  0
  1 17  1  0  0  0  0
  2  4  2  0  0  0  0
  3 15  1  0  0  0  0
  4  5  1  0  0  0  0
  4  6  1  0  0  0  0
  5 18  1  0  0  0  0
  5 19  1  0  0  0  0
  6  7  2  0  0  0  0
  6  9  1  0  0  0  0
  7  8  1  0  0  0  0
  7 20  1  0  0  0  0
  8 21  1  0  0  0  0
  9 10  1  0  0  0  0
  9 22  1  0  0  0  0
  9 23  1  0  0  0  0
 10 11  1  0  0  0  0
 10 24  1  0  0  0  0
 10 25  1  0  0  0  0
 11 12  1  0  0  0  0
 11 16  2  0  0  0  0
 12 13  2  0  0  0  0
 12 26  1  0  0  0  0
 13 14  1  0  0  0  0
 13 27  1  0  0  0  0
 14 15  2  0  0  0  0
 14 28  1  0  0  0  0
 15 16  1  0  0  0  0
 16 29  1  0  0  0  0
M  END
>  <PARENT_CMPD_ID>
3KMY

>  <STANDARD_TYPE>
IC50

>  <RELATION>
=

>  <STANDARD_VALUE>
1000

>  <STANDARD_UNITS>
uM

>  <COMPOUND_KEY>
4

>  <PUBMED_ID>
20043700

>  <JOURNAL>
J.Med.Chem.

>  <YEAR>
2010

>  <VOLUME>
53

>  <FIRST_PAGE>
942

>  <Company>
Schering

>  <Resolution>
1.9

>  <idx>
201

>  <Model>
Train

>  <target>
3

>  <des_pred_mlr>
4.58499

>  <RF_Canvas>
3.1019766

>  <DNN_Canvas>
3.3213623

>  <pred_CoMFA>
3.0309999

>  <pred_COMSIA>
3.4254999

>  <pred_abm5>
3.5708909

>  <pred_ff8>
4.2372656

>  <pred_gau6>
3.3969152

>  <CID>
BACE_201

>  <active>
0

>  <des_class_bayes>
0

>  <maacs_class_bayes>
0

>  <radial_class_bayes>
0

>  <dend_class_bayes>
0

>  <molprint_class_bayes>
0

>  <RF_canvas>
0

>  <DNN_canvas>
0

$$$$
2OHK_1116
  MOE2015           3D

 19 20  0  0  0  0  0  0  0  0999 V2000
   23.0120    9.2000   24.4250 N   0  0  0  0  0  0  0  0  0  0  0  0
   22.6950   10.1060   23.4620 C   0  0  0  0  0  0  0  0  0  0  0  0
   22.1040    9.6430   22.3400 N   0  0  0  0  0  0  0  0  0  0  0  0
   21.8020   10.5300   21.3860 C   0  0  0  0  0  0  0  0  0  0  0  0
   22.0220   11.8880   21.5100 C   0  0  0  0  0  0  0  0  0  0  0  0
   22.5880   12.3900   22.6720 C   0  0  0  0  0  0  0  0  0  0  0  0
   22.8270   13.7450   22.8640 C   0  0  0  0  0  0  0  0  0  0  0  0
   23.3970   14.1940   24.0390 C   0  0  0  0  0  0  0  0  0  0  0  0
   23.7430   13.2970   25.0250 C   0  0  0  0  0  0  0  0  0  0  0  0
   23.5100   11.9530   24.8520 C   0  0  0  0  0  0  0  0  0  0  0  0
   22.9290   11.4780   23.6850 C   0  0  0  0  0  0  0  0  0  0  0  0
   22.5610    8.3490   24.4380 H   0  0  0  0  0  0  0  0  0  0  0  0
   23.7250    9.3860   25.0450 H   0  0  0  0  0  0  0  0  0  0  0  0
   21.3550   10.1390   20.4830 H   0  0  0  0  0  0  0  0  0  0  0  0
   21.7350   12.5610   20.7160 H   0  0  0  0  0  0  0  0  0  0  0  0
   22.5620   14.4500   22.0900 H   0  0  0  0  0  0  0  0  0  0  0  0
   23.5850   15.2470   24.1810 H   0  0  0  0  0  0  0  0  0  0  0  0
   24.1890   13.6500   25.9410 H   0  0  0  0  0  0  0  0  0  0  0  0
   23.7780   11.2620   25.6300 H   0  0  0  0  0  0  0  0  0  0  0  0
  1  2  1  0  0  0  0
  1 12  1  0  0  0  0
  1 13  1  0  0  0  0
  2  3  1  0  0  0  0
  2 11  2  0  0  0  0
  3  4  2  0  0  0  0
  4  5  1  0  0  0  0
  4 14  1  0  0  0  0
  5  6  2  0  0  0  0
  5 15  1  0  0  0  0
  6  7  1  0  0  0  0
  6 11  1  0  0  0  0
  7  8  2  0  0  0  0
  7 16  1  0  0  0  0
  8  9  1  0  0  0  0
  8 17  1  0  0  0  0
  9 10  2  0  0  0  0
  9 18  1  0  0  0  0
 10 11  1  0  0  0  0
 10 19  1  0  0  0  0
M  END
>  <PARENT_CMPD_ID>
2OHK

>  <STANDARD_TYPE>
IC50

>  <RELATION>
=

>  <STANDARD_VALUE>
1000

>  <STANDARD_UNITS>
uM

>  <COMPOUND_KEY>
1

>  <PUBMED_ID>
17315856

>  <JOURNAL>
J.Med.Chem.

>  <YEAR>
2007

>  <VOLUME>
50

>  <FIRST_PAGE>
1116

>  <Company>
Astex

>  <Resolution>
2.2

>  <idx>
202

>  <Model>
Train

>  <target>
3

>  <des_pred_mlr>
3.32218

>  <RF_Canvas>
3.0417194

>  <DNN_Canvas>
3.0355864

>  <pred_CoMFA>
2.6932001

>  <pred_COMSIA>
2.9087999

>  <pred_abm5>
2.8496294

>  <pred_ff8>
4.5119004

>  <pred_gau6>
2.7996941

>  <CID>
BACE_202

>  <active>
0

>  <des_class_bayes>
0

>  <maacs_class_bayes>
0

>  <radial_class_bayes>
0

>  <dend_class_bayes>
0

>  <molprint_class_bayes>
0

>  <RF_canvas>
0

>  <DNN_canvas>
0

$$$$
2OHL_1116
  MOE2015           3D

 19 20  0  0  0  0  0  0  0  0999 V2000
   22.9360    9.1470   25.1900 N   0  0  0  0  0  0  0  0  0  0  0  0
   22.6010    9.9980   24.3030 C   0  0  0  0  0  0  0  0  0  0  0  0
   22.8700   11.3500   24.4810 C   0  0  0  0  0  0  0  0  0  0  0  0
   22.5000   12.2470   23.5080 C   0  0  0  0  0  0  0  0  0  0  0  0
   21.8440   11.7840   22.3790 C   0  0  0  0  0  0  0  0  0  0  0  0
   21.4370   12.6290   21.3590 C   0  0  0  0  0  0  0  0  0  0  0  0
   20.7820   12.1220   20.2580 C   0  0  0  0  0  0  0  0  0  0  0  0
   20.5280   10.7670   20.1600 C   0  0  0  0  0  0  0  0  0  0  0  0
   20.9320    9.9080   21.1630 C   0  0  0  0  0  0  0  0  0  0  0  0
   21.5900   10.3960   22.2770 C   0  0  0  0  0  0  0  0  0  0  0  0
   21.9630    9.5250   23.2230 N   0  0  0  0  0  0  0  0  0  0  0  0
   22.7820    8.2090   25.0370 H   0  0  0  0  0  0  0  0  0  0  0  0
   23.2940    9.4960   26.0100 H   0  0  0  0  0  0  0  0  0  0  0  0
   23.3920   11.6880   25.3650 H   0  0  0  0  0  0  0  0  0  0  0  0
   22.7110   13.3010   23.6230 H   0  0  0  0  0  0  0  0  0  0  0  0
   21.6220   13.6900   21.4370 H   0  0  0  0  0  0  0  0  0  0  0  0
   20.4630   12.7870   19.4700 H   0  0  0  0  0  0  0  0  0  0  0  0
   20.0230   10.3760   19.2910 H   0  0  0  0  0  0  0  0  0  0  0  0
   20.7380    8.8490   21.0770 H   0  0  0  0  0  0  0  0  0  0  0  0
  1  2  1  0  0  0  0
  1 12  1  0  0  0  0
  1 13  1  0  0  0  0
  2  3  1  0  0  0  0
  2 11  2  0  0  0  0
  3  4  2  0  0  0  0
  3 14  1  0  0  0  0
  4  5  1  0  0  0  0
  4 15  1  0  0  0  0
  5  6  1  0  0  0  0
  5 10  2  0  0  0  0
  6  7  2  0  0  0  0
  6 16  1  0  0  0  0
  7  8  1  0  0  0  0
  7 17  1  0  0  0  0
  8  9  2  0  0  0  0
  8 18  1  0  0  0  0
  9 10  1  0  0  0  0
  9 19  1  0  0  0  0
 10 11  1  0  0  0  0
M  END
>  <PARENT_CMPD_ID>
2OHL

>  <STANDARD_TYPE>
IC50

>  <RELATION>
=

>  <STANDARD_VALUE>
1000

>  <STANDARD_UNITS>
uM

>  <COMPOUND_KEY>
2

>  <PUBMED_ID>
17315856

>  <JOURNAL>
J.Med.Chem.

>  <YEAR>
2007

>  <VOLUME>
50

>  <FIRST_PAGE>
1116

>  <Company>
Astex

>  <Resolution>
2.6500001

>  <idx>
203

>  <Model>
Train

>  <target>
3

>  <des_pred_mlr>
3.1356599

>  <RF_Canvas>
3.032474

>  <DNN_Canvas>
3.6556652

>  <pred_CoMFA>
3.3583

>  <pred_COMSIA>
3.3896999

>  <pred_abm5>
3.1584747

>  <pred_ff8>
4.3868704

>  <pred_gau6>
3.071754

>  <CID>
BACE_203

>  <active>
0

>  <des_class_bayes>
0

>  <maacs_class_bayes>
0

>  <radial_class_bayes>
0

>  <dend_class_bayes>
0

>  <molprint_class_bayes>
0

>  <RF_canvas>
0

>  <DNN_canvas>
0

$$$$
2OF0_1116
  MOE2015           3D

 43 44  0  0  1  0  0  0  0  0999 V2000
   26.0950   10.5830   18.1280 C   0  0  0  0  0  0  0  0  0  0  0  0
   25.0060   11.4060   18.7520 C   0  0  0  0  0  0  0  0  0  0  0  0
   24.4240   12.4270   18.0150 C   0  0  0  0  0  0  0  0  0  0  0  0
   23.4220   13.2160   18.5660 C   0  0  0  0  0  0  0  0  0  0  0  0
   22.9990   12.9680   19.8650 C   0  0  0  0  0  0  0  0  0  0  0  0
   21.9050   13.8330   20.4520 C   0  0  0  0  0  0  0  0  0  0  0  0
   23.5790   11.9240   20.6120 C   0  0  0  0  0  0  0  0  0  0  0  0
   23.1470   11.7220   21.8930 O   0  0  0  0  0  0  0  0  0  0  0  0
   23.4220   10.4140   22.4040 C   0  0  0  0  0  0  0  0  0  0  0  0
   22.6010   10.3020   23.6960 C   0  0  3  0  0  0  0  0  0  0  0  0
   22.9510    9.1220   24.4210 O   0  0  0  0  0  0  0  0  0  0  0  0
   22.8380   11.5660   24.5600 C   0  0  0  0  0  0  0  0  0  0  0  0
   22.4960   11.3450   25.9790 N   0  3  0  0  0  0  0  0  0  0  0  0
   22.8350   12.5670   26.7350 C   0  0  0  0  0  0  0  0  0  0  0  0
   22.4380   12.3960   28.2120 C   0  0  0  0  0  0  0  0  0  0  0  0
   21.0360   12.0820   28.3390 O   0  0  0  0  0  0  0  0  0  0  0  0
   20.7390   10.8810   27.6100 C   0  0  0  0  0  0  0  0  0  0  0  0
   21.0530   11.0780   26.1250 C   0  0  0  0  0  0  0  0  0  0  0  0
   24.5960   11.1470   20.0500 C   0  0  0  0  0  0  0  0  0  0  0  0
   26.2780   10.9330   17.1120 H   0  0  0  0  0  0  0  0  0  0  0  0
   25.7910    9.5370   18.1030 H   0  0  0  0  0  0  0  0  0  0  0  0
   27.0070   10.6820   18.7160 H   0  0  0  0  0  0  0  0  0  0  0  0
   24.7530   12.6100   17.0030 H   0  0  0  0  0  0  0  0  0  0  0  0
   22.9770   14.0140   17.9900 H   0  0  0  0  0  0  0  0  0  0  0  0
   21.5960   14.5760   19.7170 H   0  0  0  0  0  0  0  0  0  0  0  0
   22.2790   14.3370   21.3430 H   0  0  0  0  0  0  0  0  0  0  0  0
   21.0520   13.2090   20.7190 H   0  0  0  0  0  0  0  0  0  0  0  0
   24.4850   10.3030   22.6170 H   0  0  0  0  0  0  0  0  0  0  0  0
   23.1130    9.6520   21.6880 H   0  0  0  0  0  0  0  0  0  0  0  0
   21.5430   10.2310   23.4430 H   0  0  0  0  0  0  0  0  0  0  0  0
   23.8830    9.1840   24.6440 H   0  0  0  0  0  0  0  0  0  0  0  0
   22.2210   12.3770   24.1730 H   0  0  0  0  0  0  0  0  0  0  0  0
   23.8890   11.8450   24.4920 H   0  0  0  0  0  0  0  0  0  0  0  0
   23.0120   10.5500   26.3280 H   0  0  0  0  0  0  0  0  0  0  0  0
   22.2960   13.4150   26.3120 H   0  0  0  0  0  0  0  0  0  0  0  0
   23.9080   12.7480   26.6680 H   0  0  0  0  0  0  0  0  0  0  0  0
   22.6450   13.3230   28.7460 H   0  0  0  0  0  0  0  0  0  0  0  0
   23.0250   11.5870   28.6470 H   0  0  0  0  0  0  0  0  0  0  0  0
   19.6820   10.6400   27.7270 H   0  0  0  0  0  0  0  0  0  0  0  0
   21.3430   10.0630   28.0010 H   0  0  0  0  0  0  0  0  0  0  0  0
   20.7890   10.1770   25.5710 H   0  0  0  0  0  0  0  0  0  0  0  0
   20.4830   11.9220   25.7380 H   0  0  0  0  0  0  0  0  0  0  0  0
   25.0570   10.3540   20.6210 H   0  0  0  0  0  0  0  0  0  0  0  0
  1  2  1  0  0  0  0
  1 20  1  0  0  0  0
  1 21  1  0  0  0  0
  1 22  1  0  0  0  0
  2  3  1  0  0  0  0
  2 19  2  0  0  0  0
  3  4  2  0  0  0  0
  3 23  1  0  0  0  0
  4  5  1  0  0  0  0
  4 24  1  0  0  0  0
  5  6  1  0  0  0  0
  5  7  2  0  0  0  0
  6 25  1  0  0  0  0
  6 26  1  0  0  0  0
  6 27  1  0  0  0  0
  7  8  1  0  0  0  0
  7 19  1  0  0  0  0
  8  9  1  0  0  0  0
  9 10  1  0  0  0  0
  9 28  1  0  0  0  0
  9 29  1  0  0  0  0
 10 11  1  0  0  0  0
 10 12  1  0  0  0  0
 10 30  1  0  0  0  0
 11 31  1  0  0  0  0
 12 13  1  0  0  0  0
 12 32  1  0  0  0  0
 12 33  1  0  0  0  0
 13 14  1  0  0  0  0
 13 18  1  0  0  0  0
 13 34  1  0  0  0  0
 14 15  1  0  0  0  0
 14 35  1  0  0  0  0
 14 36  1  0  0  0  0
 15 16  1  0  0  0  0
 15 37  1  0  0  0  0
 15 38  1  0  0  0  0
 16 17  1  0  0  0  0
 17 18  1  0  0  0  0
 17 39  1  0  0  0  0
 17 40  1  0  0  0  0
 18 41  1  0  0  0  0
 18 42  1  0  0  0  0
 19 43  1  0  0  0  0
M  CHG  1  13   1
M  END
>  <PARENT_CMPD_ID>
2OF0

>  <STANDARD_TYPE>
IC50

>  <RELATION>
=

>  <STANDARD_VALUE>
2000

>  <STANDARD_UNITS>
uM

>  <COMPOUND_KEY>
5

>  <PUBMED_ID>
17315856

>  <JOURNAL>
J.Med.Chem.

>  <YEAR>
2007

>  <VOLUME>
50

>  <FIRST_PAGE>
1116

>  <Company>
Astex

>  <Resolution>
2.25

>  <idx>
204

>  <Model>
Train

>  <target>
2.6989701

>  <des_pred_mlr>
5.0692301

>  <RF_Canvas>
3.178596

>  <DNN_Canvas>
2.8235381

>  <pred_CoMFA>
2.7808001

>  <pred_COMSIA>
3.2974

>  <pred_abm5>
3.2277308

>  <pred_ff8>
3.5049314

>  <pred_gau6>
3.2165914

>  <CID>
BACE_204

>  <active>
0

>  <des_class_bayes>
0

>  <maacs_class_bayes>
0

>  <radial_class_bayes>
0

>  <dend_class_bayes>
0

>  <molprint_class_bayes>
0

>  <RF_canvas>
0

>  <DNN_canvas>
0

$$$$
3HVG_10743
  MOE2015           3D

 22 22  0  0  0  0  0  0  0  0999 V2000
   22.6310   13.9090   23.5980 O   0  0  0  0  0  0  0  0  0  0  0  0
   22.6520   12.7290   23.3350 C   0  0  0  0  0  0  0  0  0  0  0  0
   22.7680   12.2740   21.9430 C   0  0  0  0  0  0  0  0  0  0  0  0
   22.5660   11.7900   24.3510 N   0  0  0  0  0  0  0  0  0  0  0  0
   22.5890   10.4310   24.0710 C   0  0  0  0  0  0  0  0  0  0  0  0
   22.5050    9.5260   25.1030 N   0  0  0  0  0  0  0  0  0  0  0  0
   22.6900   10.0030   22.8430 N   0  0  0  0  0  0  0  0  0  0  0  0
   22.7820   10.9520   21.7100 C   0  0  0  0  0  0  0  0  0  0  0  0
   22.8970   10.4040   20.3060 C   0  0  0  0  0  0  0  0  0  0  0  0
   24.2530   10.7560   19.6910 C   0  0  0  0  0  0  0  0  0  0  0  0
   24.3400   10.1770   18.2760 C   0  0  0  0  0  0  0  0  0  0  0  0
   22.8400   12.9820   21.1310 H   0  0  0  0  0  0  0  0  0  0  0  0
   22.4850   12.0990   25.3090 H   0  0  0  0  0  0  0  0  0  0  0  0
   22.5220    8.5350   24.9080 H   0  0  0  0  0  0  0  0  0  0  0  0
   22.4270    9.8520   26.0560 H   0  0  0  0  0  0  0  0  0  0  0  0
   22.1050   10.8300   19.6910 H   0  0  0  0  0  0  0  0  0  0  0  0
   22.7900    9.3200   20.3360 H   0  0  0  0  0  0  0  0  0  0  0  0
   25.0500   10.3360   20.3050 H   0  0  0  0  0  0  0  0  0  0  0  0
   24.3610   11.8400   19.6470 H   0  0  0  0  0  0  0  0  0  0  0  0
   24.2320    9.0930   18.3200 H   0  0  0  0  0  0  0  0  0  0  0  0
   25.3070   10.4280   17.8390 H   0  0  0  0  0  0  0  0  0  0  0  0
   23.5440   10.5970   17.6620 H   0  0  0  0  0  0  0  0  0  0  0  0
  1  2  2  0  0  0  0
  2  3  1  0  0  0  0
  2  4  1  0  0  0  0
  3  8  2  0  0  0  0
  3 12  1  0  0  0  0
  4  5  1  0  0  0  0
  4 13  1  0  0  0  0
  5  6  1  0  0  0  0
  5  7  2  0  0  0  0
  6 14  1  0  0  0  0
  6 15  1  0  0  0  0
  7  8  1  0  0  0  0
  8  9  1  0  0  0  0
  9 10  1  0  0  0  0
  9 16  1  0  0  0  0
  9 17  1  0  0  0  0
 10 11  1  0  0  0  0
 10 18  1  0  0  0  0
 10 19  1  0  0  0  0
 11 20  1  0  0  0  0
 11 21  1  0  0  0  0
 11 22  1  0  0  0  0
M  END
>  <PARENT_CMPD_ID>
3HVG

>  <STANDARD_TYPE>
IC50

>  <RELATION>
=

>  <STANDARD_VALUE>
2000

>  <STANDARD_UNITS>
uM

>  <COMPOUND_KEY>
8

>  <PUBMED_ID>
19799414

>  <JOURNAL>
Biochemistry

>  <YEAR>
2009

>  <VOLUME>
48

>  <FIRST_PAGE>
10743

>  <Company>
Evotec

>  <Resolution>
2.26

>  <idx>
205

>  <Model>
Train

>  <target>
2.6989701

>  <des_pred_mlr>
2.19169

>  <RF_Canvas>
2.8666112

>  <DNN_Canvas>
2.6687636

>  <pred_CoMFA>
2.6231999

>  <pred_COMSIA>
2.8566

>  <pred_abm5>
2.8597054

>  <pred_ff8>
4.5527754

>  <pred_gau6>
2.7800789

>  <CID>
BACE_205

>  <active>
0

>  <des_class_bayes>
0

>  <maacs_class_bayes>
0

>  <radial_class_bayes>
0

>  <dend_class_bayes>
0

>  <molprint_class_bayes>
0

>  <RF_canvas>
0

>  <DNN_canvas>
0

$$$$
2VIJ_1022
  MOE2015           3D

 85 89  0  0  1  0  0  0  0  0999 V2000
   24.3580   12.7940   23.4730 C   0  0  0  0  0  0  0  0  0  0  0  0
   24.3030   11.4390   23.4390 N   0  0  0  0  0  0  0  0  0  0  0  0
   23.1440   10.7090   22.9340 C   0  0  3  0  0  0  0  0  0  0  0  0
   22.4590   10.0410   24.1420 C   0  0  3  0  0  0  0  0  0  0  0  0
   23.6220    9.7250   21.8290 C   0  0  0  0  0  0  0  0  0  0  0  0
   21.9890   10.9860   25.2440 C   0  0  0  0  0  0  0  0  0  0  0  0
   23.3390   13.4850   23.4060 O   0  0  0  0  0  0  0  0  0  0  0  0
   25.6970   13.3700   23.5910 C   0  0  0  0  0  0  0  0  0  0  0  0
   26.7660   12.9650   22.7520 C   0  0  0  0  0  0  0  0  0  0  0  0
   28.0530   13.5550   22.8910 C   0  0  0  0  0  0  0  0  0  0  0  0
   28.2530   14.5600   23.8830 C   0  0  0  0  0  0  0  0  0  0  0  0
   27.1740   14.9720   24.7360 C   0  0  0  0  0  0  0  0  0  0  0  0
   25.9080   14.3640   24.5720 C   0  0  0  0  0  0  0  0  0  0  0  0
   24.3470   10.4030   20.6840 C   0  0  0  0  0  0  0  0  0  0  0  0
   23.8990   11.6190   20.0950 C   0  0  0  0  0  0  0  0  0  0  0  0
   24.6320   12.2100   19.0330 C   0  0  0  0  0  0  0  0  0  0  0  0
   25.8130   11.5890   18.5570 C   0  0  0  0  0  0  0  0  0  0  0  0
   26.2610   10.3810   19.1380 C   0  0  0  0  0  0  0  0  0  0  0  0
   25.5290    9.7950   20.1950 C   0  0  0  0  0  0  0  0  0  0  0  0
   21.3290   10.2050   26.3040 N   0  3  0  0  0  0  0  0  0  0  0  0
   29.1230   13.1840   22.0900 N   0  0  0  0  0  0  0  0  0  0  0  0
   29.0350   12.2470   20.9610 C   0  0  0  0  0  0  0  0  0  0  0  0
   29.4110   10.8290   21.4070 C   0  0  0  0  0  0  0  0  0  0  0  0
   28.7080   16.1120   26.5800 S   0  0  0  0  0  0  0  0  0  0  0  0
   29.8180   17.1990   25.7040 C   0  0  0  0  0  0  0  0  0  0  0  0
   29.0550   18.4730   25.3250 C   0  0  0  0  0  0  0  0  0  0  0  0
   27.7960   18.1520   24.4990 C   0  0  0  0  0  0  0  0  0  0  0  0
   26.7760   17.2870   25.2760 C   0  0  0  0  0  0  0  0  0  0  0  0
   28.3520   16.7240   27.8210 O   0  0  0  0  0  0  0  0  0  0  0  0
   29.3590   14.8330   26.6770 O   0  0  0  0  0  0  0  0  0  0  0  0
   20.3640   10.8870   27.2090 C   0  0  3  0  0  0  0  0  0  0  0  0
   21.1150   11.8340   28.1800 C   0  0  0  0  0  0  0  0  0  0  0  0
   20.1290   12.6800   29.0090 C   0  0  0  0  0  0  0  0  0  0  0  0
   19.3030   13.6130   28.0880 C   0  0  0  0  0  0  0  0  0  0  0  0
   18.7720   12.9250   26.8320 C   0  0  0  0  0  0  0  0  0  0  0  0
   19.2600   11.6400   26.4050 C   0  0  0  0  0  0  0  0  0  0  0  0
   17.7690   13.5750   26.0660 C   0  0  0  0  0  0  0  0  0  0  0  0
   17.2430   12.9830   24.8920 C   0  0  0  0  0  0  0  0  0  0  0  0
   17.7090   11.7250   24.4640 C   0  0  0  0  0  0  0  0  0  0  0  0
   18.7110   11.0600   25.2180 C   0  0  0  0  0  0  0  0  0  0  0  0
   27.3060   15.9510   25.7180 N   0  0  0  0  0  0  0  0  0  0  0  0
   21.3470    9.2960   23.6930 O   0  0  0  0  0  0  0  0  0  0  0  0
   25.0970   10.9140   23.7770 H   0  0  0  0  0  0  0  0  0  0  0  0
   22.4010   11.3500   22.4600 H   0  0  0  0  0  0  0  0  0  0  0  0
   23.2320    9.4180   24.5930 H   0  0  0  0  0  0  0  0  0  0  0  0
   22.7500    9.2090   21.4270 H   0  0  0  0  0  0  0  0  0  0  0  0
   24.2970    8.9990   22.2830 H   0  0  0  0  0  0  0  0  0  0  0  0
   21.2840   11.7070   24.8300 H   0  0  0  0  0  0  0  0  0  0  0  0
   22.8460   11.5150   25.6610 H   0  0  0  0  0  0  0  0  0  0  0  0
   26.6020   12.2040   22.0030 H   0  0  0  0  0  0  0  0  0  0  0  0
   29.2260   15.0160   23.9940 H   0  0  0  0  0  0  0  0  0  0  0  0
   25.0880   14.6650   25.2080 H   0  0  0  0  0  0  0  0  0  0  0  0
   22.9990   12.0930   20.4570 H   0  0  0  0  0  0  0  0  0  0  0  0
   24.2900   13.1330   18.5880 H   0  0  0  0  0  0  0  0  0  0  0  0
   26.3710   12.0390   17.7500 H   0  0  0  0  0  0  0  0  0  0  0  0
   27.1610    9.9070   18.7750 H   0  0  0  0  0  0  0  0  0  0  0  0
   25.8750    8.8720   20.6360 H   0  0  0  0  0  0  0  0  0  0  0  0
   22.0590    9.8200   26.8860 H   0  0  0  0  0  0  0  0  0  0  0  0
   20.8290    9.4540   25.8500 H   0  0  0  0  0  0  0  0  0  0  0  0
   30.0260   13.5860   22.2970 H   0  0  0  0  0  0  0  0  0  0  0  0
   29.7180   12.5680   20.1750 H   0  0  0  0  0  0  0  0  0  0  0  0
   28.0150   12.2430   20.5770 H   0  0  0  0  0  0  0  0  0  0  0  0
   30.4310   10.8280   21.7920 H   0  0  0  0  0  0  0  0  0  0  0  0
   29.3430   10.1510   20.5570 H   0  0  0  0  0  0  0  0  0  0  0  0
   28.7270   10.5010   22.1900 H   0  0  0  0  0  0  0  0  0  0  0  0
   30.1800   16.7050   24.8020 H   0  0  0  0  0  0  0  0  0  0  0  0
   30.6640   17.4530   26.3430 H   0  0  0  0  0  0  0  0  0  0  0  0
   29.7100   19.1160   24.7370 H   0  0  0  0  0  0  0  0  0  0  0  0
   28.7580   18.9920   26.2360 H   0  0  0  0  0  0  0  0  0  0  0  0
   28.0970   17.6130   23.6000 H   0  0  0  0  0  0  0  0  0  0  0  0
   27.3160   19.0890   24.2170 H   0  0  0  0  0  0  0  0  0  0  0  0
   25.9130   17.1160   24.6320 H   0  0  0  0  0  0  0  0  0  0  0  0
   26.4640   17.8400   26.1620 H   0  0  0  0  0  0  0  0  0  0  0  0
   19.8560   10.1270   27.8030 H   0  0  0  0  0  0  0  0  0  0  0  0
   21.7560   12.5000   27.6020 H   0  0  0  0  0  0  0  0  0  0  0  0
   21.7270   11.2370   28.8560 H   0  0  0  0  0  0  0  0  0  0  0  0
   20.6880   13.2850   29.7230 H   0  0  0  0  0  0  0  0  0  0  0  0
   19.4520   12.0160   29.5470 H   0  0  0  0  0  0  0  0  0  0  0  0
   19.9380   14.4440   27.7820 H   0  0  0  0  0  0  0  0  0  0  0  0
   18.4540   13.9940   28.6560 H   0  0  0  0  0  0  0  0  0  0  0  0
   17.4000   14.5390   26.3840 H   0  0  0  0  0  0  0  0  0  0  0  0
   16.4830   13.4980   24.3230 H   0  0  0  0  0  0  0  0  0  0  0  0
   17.3080   11.2700   23.5700 H   0  0  0  0  0  0  0  0  0  0  0  0
   19.0670   10.0950   24.8880 H   0  0  0  0  0  0  0  0  0  0  0  0
   20.7180    9.9140   23.3130 H   0  0  0  0  0  0  0  0  0  0  0  0
  1  2  1  0  0  0  0
  1  7  2  0  0  0  0
  1  8  1  0  0  0  0
  2  3  1  0  0  0  0
  2 43  1  0  0  0  0
  3  4  1  0  0  0  0
  3  5  1  0  0  0  0
  3 44  1  0  0  0  0
  4  6  1  0  0  0  0
  4 42  1  0  0  0  0
  4 45  1  0  0  0  0
  5 14  1  0  0  0  0
  5 46  1  0  0  0  0
  5 47  1  0  0  0  0
  6 20  1  0  0  0  0
  6 48  1  0  0  0  0
  6 49  1  0  0  0  0
  8  9  1  0  0  0  0
  8 13  2  0  0  0  0
  9 10  2  0  0  0  0
  9 50  1  0  0  0  0
 10 11  1  0  0  0  0
 10 21  1  0  0  0  0
 11 12  2  0  0  0  0
 11 51  1  0  0  0  0
 12 13  1  0  0  0  0
 12 41  1  0  0  0  0
 13 52  1  0  0  0  0
 14 15  1  0  0  0  0
 14 19  2  0  0  0  0
 15 16  2  0  0  0  0
 15 53  1  0  0  0  0
 16 17  1  0  0  0  0
 16 54  1  0  0  0  0
 17 18  2  0  0  0  0
 17 55  1  0  0  0  0
 18 19  1  0  0  0  0
 18 56  1  0  0  0  0
 19 57  1  0  0  0  0
 20 31  1  0  0  0  0
 20 58  1  0  0  0  0
 20 59  1  0  0  0  0
 21 22  1  0  0  0  0
 21 60  1  0  0  0  0
 22 23  1  0  0  0  0
 22 61  1  0  0  0  0
 22 62  1  0  0  0  0
 23 63  1  0  0  0  0
 23 64  1  0  0  0  0
 23 65  1  0  0  0  0
 24 25  1  0  0  0  0
 24 29  2  0  0  0  0
 24 30  2  0  0  0  0
 24 41  1  0  0  0  0
 25 26  1  0  0  0  0
 25 66  1  0  0  0  0
 25 67  1  0  0  0  0
 26 27  1  0  0  0  0
 26 68  1  0  0  0  0
 26 69  1  0  0  0  0
 27 28  1  0  0  0  0
 27 70  1  0  0  0  0
 27 71  1  0  0  0  0
 28 41  1  0  0  0  0
 28 72  1  0  0  0  0
 28 73  1  0  0  0  0
 31 32  1  0  0  0  0
 31 36  1  0  0  0  0
 31 74  1  0  0  0  0
 32 33  1  0  0  0  0
 32 75  1  0  0  0  0
 32 76  1  0  0  0  0
 33 34  1  0  0  0  0
 33 77  1  0  0  0  0
 33 78  1  0  0  0  0
 34 35  1  0  0  0  0
 34 79  1  0  0  0  0
 34 80  1  0  0  0  0
 35 36  1  0  0  0  0
 35 37  2  0  0  0  0
 36 40  2  0  0  0  0
 37 38  1  0  0  0  0
 37 81  1  0  0  0  0
 38 39  2  0  0  0  0
 38 82  1  0  0  0  0
 39 40  1  0  0  0  0
 39 83  1  0  0  0  0
 40 84  1  0  0  0  0
 42 85  1  0  0  0  0
M  CHG  1  20   1
M  END
>  <PARENT_CMPD_ID>
2VIJ

>  <PUBMED_ID>
18171615

>  <JOURNAL>
Bioorg.Med.Chem.Lett.

>  <YEAR>
2008

>  <VOLUME>
18

>  <FIRST_PAGE>
1022

>  <Company>
GSK

>  <Resolution>
1.6

>  <idx>
206

>  <Model>
Test

>  <des_pred_mlr>
7.4036198

>  <RF_Canvas>
7.8509288

>  <DNN_Canvas>
7.4235821

>  <pred_CoMFA>
7.9482999

>  <pred_COMSIA>
7.9176002

>  <pred_abm5>
7.7290664

>  <pred_ff8>
7.9919815

>  <pred_gau6>
7.7390885

>  <CID>
BACE_206

>  <RF_canvas>
1

>  <DNN_canvas>
1

$$$$
4L7J_5802
  MOE2015           3D

 41 44  0  0  1  0  0  0  0  0999 V2000
   18.2500   10.4690   22.7540 C   0  0  0  0  0  0  0  0  0  0  0  0
   16.5340    9.8400   24.2020 C   0  0  0  0  0  0  0  0  0  0  0  0
   19.8170   12.0140   23.8180 C   0  0  0  0  0  0  0  0  0  0  0  0
   22.2140   11.9620   23.2260 C   0  0  3  0  0  0  0  0  0  0  0  0
   22.9030   11.0050   20.9850 C   0  0  0  0  0  0  0  0  0  0  0  0
   24.6710   11.3050   18.8910 C   0  0  0  0  0  0  0  0  0  0  0  0
   23.9290   12.3910   19.3270 C   0  0  0  0  0  0  0  0  0  0  0  0
   23.0570   12.2280   20.3820 C   0  0  0  0  0  0  0  0  0  0  0  0
   15.8650    9.1870   23.1700 C   0  0  0  0  0  0  0  0  0  0  0  0
   16.4100    9.1560   21.8990 C   0  0  0  0  0  0  0  0  0  0  0  0
   17.6340    9.8050   21.6640 C   0  0  0  0  0  0  0  0  0  0  0  0
   17.6760   10.4660   23.9710 N   0  0  0  0  0  0  0  0  0  0  0  0
   19.4620   11.1560   22.6630 N   0  0  0  0  0  0  0  0  0  0  0  0
   21.0440   12.8880   23.4840 C   0  0  0  0  0  0  0  0  0  0  0  0
   21.8840   10.8960   22.1220 C   0  0  3  0  0  0  0  0  0  0  0  0
   20.4550   11.0280   21.5490 C   0  0  0  0  0  0  0  0  0  0  0  0
   22.0810    9.6130   22.7870 N   0  0  0  0  0  0  0  0  0  0  0  0
   22.4450    9.8720   24.0490 C   0  0  0  0  0  0  0  0  0  0  0  0
   22.5770   11.1900   24.3590 O   0  0  0  0  0  0  0  0  0  0  0  0
   22.7210    8.9000   24.9790 N   0  0  0  0  0  0  0  0  0  0  0  0
   23.6450    9.9140   20.5700 C   0  0  0  0  0  0  0  0  0  0  0  0
   24.5510   10.0600   19.4790 C   0  0  0  0  0  0  0  0  0  0  0  0
   22.3300   13.2900   20.8010 F   0  0  0  0  0  0  0  0  0  0  0  0
   25.5400   11.5120   17.8770 F   0  0  0  0  0  0  0  0  0  0  0  0
   18.2010    9.7950   20.3480 C   0  0  0  0  0  0  0  0  0  0  0  0
   18.6950    9.8030   19.3050 N   0  0  0  0  0  0  0  0  0  0  0  0
   16.1170    9.8350   25.1980 H   0  0  0  0  0  0  0  0  0  0  0  0
   20.0490   11.3830   24.6760 H   0  0  0  0  0  0  0  0  0  0  0  0
   18.9720   12.6590   24.0590 H   0  0  0  0  0  0  0  0  0  0  0  0
   23.0170   12.6380   22.9320 H   0  0  0  0  0  0  0  0  0  0  0  0
   24.0330   13.3530   18.8460 H   0  0  0  0  0  0  0  0  0  0  0  0
   14.9190    8.7040   23.3620 H   0  0  0  0  0  0  0  0  0  0  0  0
   15.9020    8.6400   21.0980 H   0  0  0  0  0  0  0  0  0  0  0  0
   21.2700   13.5460   24.3230 H   0  0  0  0  0  0  0  0  0  0  0  0
   20.8420   13.4870   22.5960 H   0  0  0  0  0  0  0  0  0  0  0  0
   20.4010   11.9130   20.9150 H   0  0  0  0  0  0  0  0  0  0  0  0
   20.2210   10.1430   20.9580 H   0  0  0  0  0  0  0  0  0  0  0  0
   22.6540    7.9250   24.7250 H   0  0  0  0  0  0  0  0  0  0  0  0
   22.9910    9.1600   25.9170 H   0  0  0  0  0  0  0  0  0  0  0  0
   23.5390    8.9610   21.0670 H   0  0  0  0  0  0  0  0  0  0  0  0
   25.1280    9.2200   19.1220 H   0  0  0  0  0  0  0  0  0  0  0  0
  1 11  2  0  0  0  0
  1 12  1  0  0  0  0
  1 13  1  0  0  0  0
  2  9  1  0  0  0  0
  2 12  2  0  0  0  0
  2 27  1  0  0  0  0
  3 13  1  0  0  0  0
  3 14  1  0  0  0  0
  3 28  1  0  0  0  0
  3 29  1  0  0  0  0
  4 14  1  0  0  0  0
  4 15  1  0  0  0  0
  4 19  1  0  0  0  0
  4 30  1  0  0  0  0
  5  8  2  0  0  0  0
  5 15  1  0  0  0  0
  5 21  1  0  0  0  0
  6  7  2  0  0  0  0
  6 22  1  0  0  0  0
  6 24  1  0  0  0  0
  7  8  1  0  0  0  0
  7 31  1  0  0  0  0
  8 23  1  0  0  0  0
  9 10  2  0  0  0  0
  9 32  1  0  0  0  0
 10 11  1  0  0  0  0
 10 33  1  0  0  0  0
 11 25  1  0  0  0  0
 13 16  1  0  0  0  0
 14 34  1  0  0  0  0
 14 35  1  0  0  0  0
 15 16  1  0  0  0  0
 15 17  1  0  0  0  0
 16 36  1  0  0  0  0
 16 37  1  0  0  0  0
 17 18  2  0  0  0  0
 18 19  1  0  0  0  0
 18 20  1  0  0  0  0
 20 38  1  0  0  0  0
 20 39  1  0  0  0  0
 21 22  2  0  0  0  0
 21 40  1  0  0  0  0
 22 41  1  0  0  0  0
 25 26  3  0  0  0  0
M  END
>  <PARENT_CMPD_ID>
4L7J

>  <JOURNAL>
Tetrahedron Lett.

>  <YEAR>
2013

>  <VOLUME>
54

>  <FIRST_PAGE>
5802

>  <Company>
Genentech

>  <Resolution>
1.65

>  <idx>
207

>  <Model>
Test

>  <des_pred_mlr>
6.9672599

>  <RF_Canvas>
6.7857256

>  <DNN_Canvas>
6.362565

>  <pred_CoMFA>
4.6542001

>  <pred_COMSIA>
5.0542998

>  <pred_abm5>
5.2055712

>  <pred_ff8>
5.5578365

>  <pred_gau6>
5.6212759

>  <CID>
BACE_207

>  <RF_canvas>
1

>  <DNN_canvas>
1

$$$$
4I0E_3075
  MOE2015           3D

 50 53  0  0  1  0  0  0  0  0999 V2000
   21.5090   15.2860   17.4580 Cl  0  0  0  0  0  0  0  0  0  0  0  0
   22.7000   14.5870   18.6000 C   0  0  0  0  0  0  0  0  0  0  0  0
   23.8740   15.2570   18.9540 C   0  0  0  0  0  0  0  0  0  0  0  0
   24.7920   14.6520   19.8050 C   0  0  0  0  0  0  0  0  0  0  0  0
   22.3880   13.3040   19.0920 C   0  0  0  0  0  0  0  0  0  0  0  0
   23.2790   12.6940   19.9280 C   0  0  0  0  0  0  0  0  0  0  0  0
   24.5190   13.3550   20.2910 C   0  0  0  0  0  0  0  0  0  0  0  0
   23.0040   11.3030   20.5390 C   0  0  0  0  0  0  0  0  0  0  0  0
   24.3110   10.5670   20.6850 C   0  0  0  0  0  0  0  0  0  0  0  0
   24.0500    9.2580   21.4470 C   0  0  0  0  0  0  0  0  0  0  0  0
   24.8260   10.2690   19.2760 C   0  0  0  0  0  0  0  0  0  0  0  0
   25.2640   11.3600   21.4330 N   0  3  0  0  0  0  0  0  0  0  0  0
   25.4030   12.6010   21.2650 C   0  0  0  0  0  0  0  0  0  0  0  0
   26.2110   13.3880   22.0030 N   0  0  0  0  0  0  0  0  0  0  0  0
   27.4890   13.0680   22.6810 C   0  0  3  0  0  0  0  0  0  0  0  0
   27.4710   13.7540   24.0060 C   0  0  0  0  0  0  0  0  0  0  0  0
   28.1690   13.5540   25.0140 O   0  0  0  0  0  0  0  0  0  0  0  0
   26.6810   14.6810   23.9960 O   0  5  0  0  0  0  0  0  0  0  0  0
   28.8150   12.9370   21.9390 C   0  0  0  0  0  0  0  0  0  0  0  0
   28.6880   11.9800   20.8090 C   0  0  0  0  0  0  0  0  0  0  0  0
   28.9210   10.5520   20.9820 C   0  0  0  0  0  0  0  0  0  0  0  0
   29.4070    9.6350   22.6390 Br  0  0  0  0  0  0  0  0  0  0  0  0
   28.7220    9.6160   19.5770 S   0  0  0  0  0  0  0  0  0  0  0  0
   28.3570   10.9840   18.5810 C   0  0  0  0  0  0  0  0  0  0  0  0
   28.3590   12.1350   19.3530 C   0  0  0  0  0  0  0  0  0  0  0  0
   27.9990   13.3900   18.6840 C   0  0  0  0  0  0  0  0  0  0  0  0
   27.0410   13.3770   17.6730 C   0  0  0  0  0  0  0  0  0  0  0  0
   26.9250   14.6870   17.3810 N   0  0  0  0  0  0  0  0  0  0  0  0
   27.6920   15.4290   18.1650 N   0  0  0  0  0  0  0  0  0  0  0  0
   28.3910   14.6650   19.0460 C   0  0  0  0  0  0  0  0  0  0  0  0
   24.0690   16.2460   18.5660 H   0  0  0  0  0  0  0  0  0  0  0  0
   25.6990   15.1660   20.0890 H   0  0  0  0  0  0  0  0  0  0  0  0
   21.4660   12.8150   18.8150 H   0  0  0  0  0  0  0  0  0  0  0  0
   22.3390   10.7410   19.8840 H   0  0  0  0  0  0  0  0  0  0  0  0
   22.5380   11.4190   21.5180 H   0  0  0  0  0  0  0  0  0  0  0  0
   23.3330    8.6520   20.8930 H   0  0  0  0  0  0  0  0  0  0  0  0
   23.6470    9.4860   22.4340 H   0  0  0  0  0  0  0  0  0  0  0  0
   24.9850    8.7080   21.5550 H   0  0  0  0  0  0  0  0  0  0  0  0
   24.0890    9.6720   18.7390 H   0  0  0  0  0  0  0  0  0  0  0  0
   25.7630    9.7170   19.3410 H   0  0  0  0  0  0  0  0  0  0  0  0
   24.9930   11.2060   18.7440 H   0  0  0  0  0  0  0  0  0  0  0  0
   25.8430   10.8980   22.1200 H   0  0  0  0  0  0  0  0  0  0  0  0
   25.8970   14.3420   22.1100 H   0  0  0  0  0  0  0  0  0  0  0  0
   27.4980   11.9830   22.7840 H   0  0  0  0  0  0  0  0  0  0  0  0
   29.5780   12.5770   22.6290 H   0  0  0  0  0  0  0  0  0  0  0  0
   29.1070   13.9130   21.5510 H   0  0  0  0  0  0  0  0  0  0  0  0
   28.1580   10.9460   17.5200 H   0  0  0  0  0  0  0  0  0  0  0  0
   26.5250   12.5350   17.2360 H   0  0  0  0  0  0  0  0  0  0  0  0
   27.7500   16.4360   18.1150 H   0  0  0  0  0  0  0  0  0  0  0  0
   29.0730   14.9730   19.8240 H   0  0  0  0  0  0  0  0  0  0  0  0
  1  2  1  0  0  0  0
  2  3  2  0  0  0  0
  2  5  1  0  0  0  0
  3  4  1  0  0  0  0
  3 31  1  0  0  0  0
  4  7  2  0  0  0  0
  4 32  1  0  0  0  0
  5  6  2  0  0  0  0
  5 33  1  0  0  0  0
  6  7  1  0  0  0  0
  6  8  1  0  0  0  0
  7 13  1  0  0  0  0
  8  9  1  0  0  0  0
  8 34  1  0  0  0  0
  8 35  1  0  0  0  0
  9 10  1  0  0  0  0
  9 11  1  0  0  0  0
  9 12  1  0  0  0  0
 10 36  1  0  0  0  0
 10 37  1  0  0  0  0
 10 38  1  0  0  0  0
 11 39  1  0  0  0  0
 11 40  1  0  0  0  0
 11 41  1  0  0  0  0
 12 13  2  0  0  0  0
 12 42  1  0  0  0  0
 13 14  1  0  0  0  0
 14 15  1  0  0  0  0
 14 43  1  0  0  0  0
 15 16  1  0  0  0  0
 15 19  1  0  0  0  0
 15 44  1  0  0  0  0
 16 17  2  0  0  0  0
 16 18  1  0  0  0  0
 19 20  1  0  0  0  0
 19 45  1  0  0  0  0
 19 46  1  0  0  0  0
 20 21  2  0  0  0  0
 20 25  1  0  0  0  0
 21 22  1  0  0  0  0
 21 23  1  0  0  0  0
 23 24  1  0  0  0  0
 24 25  2  0  0  0  0
 24 47  1  0  0  0  0
 25 26  1  0  0  0  0
 26 27  1  0  0  0  0
 26 30  2  0  0  0  0
 27 28  2  0  0  0  0
 27 48  1  0  0  0  0
 28 29  1  0  0  0  0
 29 30  1  0  0  0  0
 29 49  1  0  0  0  0
 30 50  1  0  0  0  0
M  CHG  1  12   1
M  CHG  1  18  -1
M  END
>  <PARENT_CMPD_ID>
4I0E

>  <PUBMED_ID>
23570791

>  <JOURNAL>
Bioorg.Med.Chem.Lett.

>  <YEAR>
2013

>  <VOLUME>
23

>  <FIRST_PAGE>
3075

>  <Company>
Elan

>  <Resolution>
1.7

>  <idx>
208

>  <Model>
Test

>  <des_pred_mlr>
6.0348001

>  <RF_Canvas>
6.9079475

>  <DNN_Canvas>
6.6043897

>  <pred_CoMFA>
6.2797999

>  <pred_COMSIA>
5.8927002

>  <pred_abm5>
6.7049537

>  <pred_ff8>
5.5360184

>  <pred_gau6>
6.389482

>  <CID>
BACE_208

>  <RF_canvas>
0

>  <DNN_canvas>
0

$$$$
3UDH_9069
  MOE2015           3D

 27 29  0  0  1  0  0  0  0  0999 V2000
   22.6440   10.9060   22.6290 C   0  0  3  0  0  0  0  0  0  0  0  0
   23.2360   10.9900   21.2640 C   0  0  0  0  0  0  0  0  0  0  0  0
   22.2370   12.3460   22.8520 C   0  0  0  0  0  0  0  0  0  0  0  0
   21.4010   10.0560   22.6350 C   0  0  0  0  0  0  0  0  0  0  0  0
   21.4350    9.3310   21.8220 H   0  0  0  0  0  0  0  0  0  0  0  0
   20.5150   10.6810   22.5270 H   0  0  0  0  0  0  0  0  0  0  0  0
   23.5580   10.3770   23.7160 C   0  0  0  0  0  0  0  0  0  0  0  0
   23.7470   11.1460   24.4650 H   0  0  0  0  0  0  0  0  0  0  0  0
   24.5050   10.0430   23.2910 H   0  0  0  0  0  0  0  0  0  0  0  0
   23.1390   12.2560   20.7710 C   0  0  0  0  0  0  0  0  0  0  0  0
   23.8150   10.0080   20.5170 C   0  0  0  0  0  0  0  0  0  0  0  0
   23.9140    9.0060   20.9080 H   0  0  0  0  0  0  0  0  0  0  0  0
   22.5330   13.0840   21.7090 N   0  0  0  0  0  0  0  0  0  0  0  0
   22.3380   14.0670   21.5810 H   0  0  0  0  0  0  0  0  0  0  0  0
   21.5840   12.6970   23.8290 O   0  0  0  0  0  0  0  0  0  0  0  0
   21.3830    9.3460   23.9720 C   0  0  0  0  0  0  0  0  0  0  0  0
   20.9190    8.3630   23.8850 H   0  0  0  0  0  0  0  0  0  0  0  0
   20.8500    9.9350   24.7180 H   0  0  0  0  0  0  0  0  0  0  0  0
   22.8170    9.2250   24.3200 N   0  3  0  0  0  0  0  0  0  0  0  0
   22.9250    9.2400   25.3240 H   0  0  0  0  0  0  0  0  0  0  0  0
   23.1830    8.3570   23.9550 H   0  0  0  0  0  0  0  0  0  0  0  0
   23.5810   12.5880   19.5130 C   0  0  0  0  0  0  0  0  0  0  0  0
   23.4720   13.5920   19.1290 H   0  0  0  0  0  0  0  0  0  0  0  0
   24.2740   10.3160   19.2490 C   0  0  0  0  0  0  0  0  0  0  0  0
   24.7190    9.5450   18.6380 H   0  0  0  0  0  0  0  0  0  0  0  0
   24.1670   11.5990   18.7600 C   0  0  0  0  0  0  0  0  0  0  0  0
   24.5470   11.8300   17.7760 H   0  0  0  0  0  0  0  0  0  0  0  0
  1  2  1  0  0  0  0
  1  3  1  0  0  0  0
  1  4  1  0  0  0  0
  1  7  1  0  0  0  0
  2 10  2  0  0  0  0
  2 11  1  0  0  0  0
  3 13  1  0  0  0  0
  3 15  2  0  0  0  0
  4  5  1  0  0  0  0
  4  6  1  0  0  0  0
  4 16  1  0  0  0  0
  7  8  1  0  0  0  0
  7  9  1  0  0  0  0
  7 19  1  0  0  0  0
 10 13  1  0  0  0  0
 10 22  1  0  0  0  0
 11 12  1  0  0  0  0
 11 24  2  0  0  0  0
 13 14  1  0  0  0  0
 16 17  1  0  0  0  0
 16 18  1  0  0  0  0
 16 19  1  0  0  0  0
 19 20  1  0  0  0  0
 19 21  1  0  0  0  0
 22 23  1  0  0  0  0
 22 26  2  0  0  0  0
 24 25  1  0  0  0  0
 24 26  1  0  0  0  0
 26 27  1  0  0  0  0
M  CHG  1  19   1
M  END
>  <PARENT_CMPD_ID>
3UDH

>  <STANDARD_TYPE>
IC50

>  <RELATION>
=

>  <COMPOUND_KEY>
1

>  <PUBMED_ID>
22468999

>  <JOURNAL>
J.Med.Chem.

>  <YEAR>
2012

>  <VOLUME>
55

>  <FIRST_PAGE>
9069

>  <Company>
Pfizer

>  <Resolution>
1.7

>  <idx>
209

>  <Model>
Test

>  <des_pred_mlr>
2.7295699

>  <RF_Canvas>
3.2761652

>  <DNN_Canvas>
2.8338118

>  <pred_CoMFA>
3.2293

>  <pred_COMSIA>
3.2233

>  <pred_abm5>
3.4775112

>  <pred_ff8>
4.8777876

>  <pred_gau6>
3.5518806

>  <CID>
BACE_209

>  <RF_canvas>
0

>  <DNN_canvas>
0

$$$$
3UQU_
  MOE2015           3D

 77 80  0  0  1  0  0  0  0  0999 V2000
   28.8900    9.8810   20.2110 C   0  0  0  0  0  0  0  0  0  0  0  0
   29.6740    9.3550   19.6660 H   0  0  0  0  0  0  0  0  0  0  0  0
   28.3030   10.4800   19.5150 H   0  0  0  0  0  0  0  0  0  0  0  0
   28.2420    9.1570   20.7040 H   0  0  0  0  0  0  0  0  0  0  0  0
   25.8030   16.9650   26.1110 C   0  0  0  0  0  0  0  0  0  0  0  0
   24.9330   16.7540   25.4890 H   0  0  0  0  0  0  0  0  0  0  0  0
   26.1640   17.9710   25.9000 H   0  0  0  0  0  0  0  0  0  0  0  0
   25.5240   16.8920   27.1620 H   0  0  0  0  0  0  0  0  0  0  0  0
   29.4070   17.2030   25.6900 C   0  0  0  0  0  0  0  0  0  0  0  0
   29.6940   16.7650   24.7340 H   0  0  0  0  0  0  0  0  0  0  0  0
   30.3020   17.4320   26.2680 H   0  0  0  0  0  0  0  0  0  0  0  0
   28.8430   18.1190   25.5150 H   0  0  0  0  0  0  0  0  0  0  0  0
   29.5090   13.5730   21.7490 O   0  0  0  0  0  0  0  0  0  0  0  0
   22.8610   13.6540   23.5090 O   0  0  0  0  0  0  0  0  0  0  0  0
   29.1200   14.7810   26.7130 O   0  0  0  0  0  0  0  0  0  0  0  0
   28.0140   16.7250   27.9520 O   0  0  0  0  0  0  0  0  0  0  0  0
   22.9730    9.1520   24.7800 O   0  0  0  0  0  0  0  0  0  0  0  0
   22.6330    8.5800   25.4720 H   0  0  0  0  0  0  0  0  0  0  0  0
   33.0610    7.9810   24.5150 F   0  0  0  0  0  0  0  0  0  0  0  0
   25.1800   11.8440   18.7530 C   0  0  0  0  0  0  0  0  0  0  0  0
   25.7840   12.3140   17.9910 H   0  0  0  0  0  0  0  0  0  0  0  0
   25.3800   10.4720   19.1300 C   0  0  0  0  0  0  0  0  0  0  0  0
   26.1250    9.8910   18.6060 H   0  0  0  0  0  0  0  0  0  0  0  0
   24.1710   12.5400   19.4160 C   0  0  0  0  0  0  0  0  0  0  0  0
   23.9400   13.5520   19.1170 H   0  0  0  0  0  0  0  0  0  0  0  0
   17.9440   11.7640   24.9510 C   0  0  0  0  0  0  0  0  0  0  0  0
   16.8940   11.6220   24.7410 H   0  0  0  0  0  0  0  0  0  0  0  0
   18.5990   12.9370   25.1270 C   0  0  0  0  0  0  0  0  0  0  0  0
   18.1440   13.9170   25.1350 H   0  0  0  0  0  0  0  0  0  0  0  0
   24.6110    9.8330   20.1990 C   0  0  0  0  0  0  0  0  0  0  0  0
   24.8020    8.8110   20.4930 H   0  0  0  0  0  0  0  0  0  0  0  0
   23.4550   11.9540   20.4570 C   0  0  0  0  0  0  0  0  0  0  0  0
   22.7450   12.5540   21.0070 H   0  0  0  0  0  0  0  0  0  0  0  0
   32.7780    9.6490   22.9110 C   0  0  0  0  0  0  0  0  0  0  0  0
   33.8360    9.8620   22.8630 H   0  0  0  0  0  0  0  0  0  0  0  0
   30.8130    8.3780   23.8900 C   0  0  0  0  0  0  0  0  0  0  0  0
   30.4920    7.5780   24.5400 H   0  0  0  0  0  0  0  0  0  0  0  0
   31.8040   10.2960   22.0970 C   0  0  0  0  0  0  0  0  0  0  0  0
   32.1340   11.0260   21.3720 H   0  0  0  0  0  0  0  0  0  0  0  0
   29.8990    9.1010   23.1540 C   0  0  0  0  0  0  0  0  0  0  0  0
   28.8350    8.9780   23.2910 H   0  0  0  0  0  0  0  0  0  0  0  0
   18.9110   10.7890   25.0980 C   0  0  0  0  0  0  0  0  0  0  0  0
   18.7430    9.7220   25.0910 H   0  0  0  0  0  0  0  0  0  0  0  0
   26.2500   12.8950   22.9500 C   0  0  0  0  0  0  0  0  0  0  0  0
   26.0480   12.1320   22.2130 H   0  0  0  0  0  0  0  0  0  0  0  0
   27.8440   14.4020   24.0240 C   0  0  0  0  0  0  0  0  0  0  0  0
   28.8460   14.7960   24.1140 H   0  0  0  0  0  0  0  0  0  0  0  0
   25.4460   14.4540   24.7050 C   0  0  0  0  0  0  0  0  0  0  0  0
   24.6440   14.8540   25.3070 H   0  0  0  0  0  0  0  0  0  0  0  0
   22.7770    9.9610   21.9720 C   0  0  0  0  0  0  0  0  0  0  0  0
   23.3040    9.0820   22.3420 H   0  0  0  0  0  0  0  0  0  0  0  0
   21.8170    9.6590   21.5520 H   0  0  0  0  0  0  0  0  0  0  0  0
   21.4440   10.8400   25.5640 C   0  0  0  0  0  0  0  0  0  0  0  0
   22.1550   11.6490   25.7310 H   0  0  0  0  0  0  0  0  0  0  0  0
   21.3830   10.2200   26.4580 H   0  0  0  0  0  0  0  0  0  0  0  0
   19.9290   12.6760   25.2920 N   0  0  0  0  0  0  0  0  0  0  0  0
   28.5020   11.5180   22.0130 N   0  0  0  0  0  0  0  0  0  0  0  0
   27.6720   11.0250   22.3110 H   0  0  0  0  0  0  0  0  0  0  0  0
   23.7660   11.5760   23.5280 N   0  0  0  0  0  0  0  0  0  0  0  0
   24.5890   11.0210   23.7150 H   0  0  0  0  0  0  0  0  0  0  0  0
   28.6500   12.8280   22.2730 C   0  0  0  0  0  0  0  0  0  0  0  0
   23.8440   12.9330   23.5870 C   0  0  0  0  0  0  0  0  0  0  0  0
   32.2220    8.7210   23.7680 C   0  0  0  0  0  0  0  0  0  0  0  0
   23.6320   10.5840   20.8180 C   0  0  0  0  0  0  0  0  0  0  0  0
   27.5430   13.3730   23.1280 C   0  0  0  0  0  0  0  0  0  0  0  0
   25.2130   13.4110   23.7340 C   0  0  0  0  0  0  0  0  0  0  0  0
   30.4330   10.0200   22.2020 C   0  0  0  0  0  0  0  0  0  0  0  0
   26.7490   14.9200   24.8300 C   0  0  0  0  0  0  0  0  0  0  0  0
   29.5490   10.8300   21.3010 C   0  0  3  0  0  0  0  0  0  0  0  0
   30.1810   11.5850   20.8330 H   0  0  0  0  0  0  0  0  0  0  0  0
   21.9120    9.9640   24.3390 C   0  0  3  0  0  0  0  0  0  0  0  0
   21.0710    9.3830   23.9600 H   0  0  0  0  0  0  0  0  0  0  0  0
   22.4940   10.9030   23.1940 C   0  0  3  0  0  0  0  0  0  0  0  0
   21.7660   11.6950   23.0140 H   0  0  0  0  0  0  0  0  0  0  0  0
   26.9160   15.9440   25.8020 N   0  0  0  0  0  0  0  0  0  0  0  0
   20.1060   11.4050   25.2530 N   0  0  0  0  0  0  0  0  0  0  0  0
   28.3760   16.0240   26.6110 S   0  0  0  0  0  0  0  0  0  0  0  0
  1  2  1  0  0  0  0
  1  3  1  0  0  0  0
  1  4  1  0  0  0  0
  1 69  1  0  0  0  0
  5  6  1  0  0  0  0
  5  7  1  0  0  0  0
  5  8  1  0  0  0  0
  5 75  1  0  0  0  0
  9 10  1  0  0  0  0
  9 11  1  0  0  0  0
  9 12  1  0  0  0  0
  9 77  1  0  0  0  0
 13 61  2  0  0  0  0
 14 62  2  0  0  0  0
 15 77  2  0  0  0  0
 16 77  2  0  0  0  0
 17 18  1  0  0  0  0
 17 71  1  0  0  0  0
 19 63  1  0  0  0  0
 20 21  1  0  0  0  0
 20 22  2  0  0  0  0
 20 24  1  0  0  0  0
 22 23  1  0  0  0  0
 22 30  1  0  0  0  0
 24 25  1  0  0  0  0
 24 32  2  0  0  0  0
 26 27  1  0  0  0  0
 26 28  1  0  0  0  0
 26 42  2  0  0  0  0
 28 29  1  0  0  0  0
 28 56  2  0  0  0  0
 30 31  1  0  0  0  0
 30 64  2  0  0  0  0
 32 33  1  0  0  0  0
 32 64  1  0  0  0  0
 34 35  1  0  0  0  0
 34 38  1  0  0  0  0
 34 63  2  0  0  0  0
 36 37  1  0  0  0  0
 36 40  2  0  0  0  0
 36 63  1  0  0  0  0
 38 39  1  0  0  0  0
 38 67  2  0  0  0  0
 40 41  1  0  0  0  0
 40 67  1  0  0  0  0
 42 43  1  0  0  0  0
 42 76  1  0  0  0  0
 44 45  1  0  0  0  0
 44 65  2  0  0  0  0
 44 66  1  0  0  0  0
 46 47  1  0  0  0  0
 46 65  1  0  0  0  0
 46 68  2  0  0  0  0
 48 49  1  0  0  0  0
 48 66  2  0  0  0  0
 48 68  1  0  0  0  0
 50 51  1  0  0  0  0
 50 52  1  0  0  0  0
 50 64  1  0  0  0  0
 50 73  1  0  0  0  0
 53 54  1  0  0  0  0
 53 55  1  0  0  0  0
 53 71  1  0  0  0  0
 53 76  1  0  0  0  0
 56 76  1  0  0  0  0
 57 58  1  0  0  0  0
 57 61  1  0  0  0  0
 57 69  1  0  0  0  0
 59 60  1  0  0  0  0
 59 62  1  0  0  0  0
 59 73  1  0  0  0  0
 61 65  1  0  0  0  0
 62 66  1  0  0  0  0
 67 69  1  0  0  0  0
 68 75  1  0  0  0  0
 69 70  1  0  0  0  0
 71 72  1  0  0  0  0
 71 73  1  0  0  0  0
 73 74  1  0  0  0  0
 75 77  1  0  0  0  0
M  END
>  <PARENT_CMPD_ID>
3UQU

>  <JOURNAL>
To be Published

>  <Resolution>
1.7

>  <idx>
210

>  <Model>
Test

>  <des_pred_mlr>
8.1277399

>  <RF_Canvas>
7.6177578

>  <DNN_Canvas>
7.049427

>  <pred_CoMFA>
6.6444001

>  <pred_COMSIA>
7.3079

>  <pred_abm5>
7.3135915

>  <pred_ff8>
7.8830247

>  <pred_gau6>
7.4142585

>  <CID>
BACE_210

>  <RF_canvas>
1

>  <DNN_canvas>
1

$$$$
3UQX_
  MOE2015           3D

 81 84  0  0  1  0  0  0  0  0999 V2000
   31.9080   10.3500   22.0690 C   0  0  0  0  0  0  0  0  0  0  0  0
   32.2770   11.0890   21.3730 H   0  0  0  0  0  0  0  0  0  0  0  0
   32.7730    9.6370   22.9530 C   0  0  0  0  0  0  0  0  0  0  0  0
   33.8260    9.8630   23.0340 H   0  0  0  0  0  0  0  0  0  0  0  0
   32.1790    8.6440   23.6950 C   0  0  0  0  0  0  0  0  0  0  0  0
   33.0210    7.9590   24.5130 F   0  0  0  0  0  0  0  0  0  0  0  0
   30.8170    8.3530   23.7960 C   0  0  0  0  0  0  0  0  0  0  0  0
   30.4850    7.5450   24.4310 H   0  0  0  0  0  0  0  0  0  0  0  0
   29.9080    9.0830   23.0990 C   0  0  0  0  0  0  0  0  0  0  0  0
   28.8400    8.9800   23.2220 H   0  0  0  0  0  0  0  0  0  0  0  0
   30.5260   10.0210   22.1670 C   0  0  0  0  0  0  0  0  0  0  0  0
   29.5480   10.8310   21.3030 C   0  0  3  0  0  0  0  0  0  0  0  0
   30.1590   11.6030   20.8360 H   0  0  0  0  0  0  0  0  0  0  0  0
   28.8870    9.9110   20.2430 C   0  0  0  0  0  0  0  0  0  0  0  0
   28.2850    9.1530   20.7440 H   0  0  0  0  0  0  0  0  0  0  0  0
   29.6620    9.4260   19.6490 H   0  0  0  0  0  0  0  0  0  0  0  0
   28.2500   10.5080   19.5910 H   0  0  0  0  0  0  0  0  0  0  0  0
   28.5190   11.5280   22.0310 N   0  0  0  0  0  0  0  0  0  0  0  0
   27.7490   10.9990   22.4150 H   0  0  0  0  0  0  0  0  0  0  0  0
   28.5500   12.9080   22.2240 C   0  0  0  0  0  0  0  0  0  0  0  0
   29.4630   13.6340   21.7370 O   0  0  0  0  0  0  0  0  0  0  0  0
   27.5030   13.4210   23.0990 C   0  0  0  0  0  0  0  0  0  0  0  0
   26.2110   12.9500   22.9680 C   0  0  0  0  0  0  0  0  0  0  0  0
   26.0160   12.1940   22.2220 H   0  0  0  0  0  0  0  0  0  0  0  0
   27.8810   14.4750   23.9790 C   0  0  0  0  0  0  0  0  0  0  0  0
   28.8670   14.9120   24.0360 H   0  0  0  0  0  0  0  0  0  0  0  0
   26.7310   14.8780   24.7970 C   0  0  0  0  0  0  0  0  0  0  0  0
   26.9370   15.9570   25.8260 N   0  0  0  0  0  0  0  0  0  0  0  0
   25.8100   16.9300   26.0760 C   0  0  0  0  0  0  0  0  0  0  0  0
   24.9610   16.6730   25.4420 H   0  0  0  0  0  0  0  0  0  0  0  0
   26.1440   17.9410   25.8430 H   0  0  0  0  0  0  0  0  0  0  0  0
   25.5110   16.8780   27.1230 H   0  0  0  0  0  0  0  0  0  0  0  0
   28.3400   16.0790   26.6220 S   0  0  0  0  0  0  0  0  0  0  0  0
   29.4040   17.2170   25.7390 C   0  0  0  0  0  0  0  0  0  0  0  0
   29.6800   16.7850   24.7770 H   0  0  0  0  0  0  0  0  0  0  0  0
   30.3040   17.4020   26.3250 H   0  0  0  0  0  0  0  0  0  0  0  0
   28.8760   18.1570   25.5770 H   0  0  0  0  0  0  0  0  0  0  0  0
   29.0230   14.8130   26.6290 O   0  0  0  0  0  0  0  0  0  0  0  0
   27.9430   16.6460   27.9510 O   0  0  0  0  0  0  0  0  0  0  0  0
   25.4160   14.4500   24.7270 C   0  0  0  0  0  0  0  0  0  0  0  0
   24.6490   14.8730   25.3590 H   0  0  0  0  0  0  0  0  0  0  0  0
   25.1190   13.4090   23.7660 C   0  0  0  0  0  0  0  0  0  0  0  0
   23.7910   12.9060   23.6410 C   0  0  0  0  0  0  0  0  0  0  0  0
   22.8080   13.5940   23.6280 O   0  0  0  0  0  0  0  0  0  0  0  0
   23.6650   11.4830   23.5070 N   0  0  0  0  0  0  0  0  0  0  0  0
   24.4840   10.9110   23.6550 H   0  0  0  0  0  0  0  0  0  0  0  0
   22.4480   10.8450   23.1780 C   0  0  3  0  0  0  0  0  0  0  0  0
   21.6460   11.5570   22.9820 H   0  0  0  0  0  0  0  0  0  0  0  0
   22.7970    9.9750   21.9640 C   0  0  0  0  0  0  0  0  0  0  0  0
   23.3780    9.1290   22.3300 H   0  0  0  0  0  0  0  0  0  0  0  0
   21.8580    9.6160   21.5440 H   0  0  0  0  0  0  0  0  0  0  0  0
   23.5920   10.6100   20.8200 C   0  0  0  0  0  0  0  0  0  0  0  0
   24.6100    9.8140   20.2390 C   0  0  0  0  0  0  0  0  0  0  0  0
   24.7920    8.7980   20.5580 H   0  0  0  0  0  0  0  0  0  0  0  0
   25.4160   10.4560   19.1630 C   0  0  0  0  0  0  0  0  0  0  0  0
   26.2130    9.9040   18.6870 H   0  0  0  0  0  0  0  0  0  0  0  0
   25.1420   11.7890   18.7600 C   0  0  0  0  0  0  0  0  0  0  0  0
   25.7190   12.2370   17.9650 H   0  0  0  0  0  0  0  0  0  0  0  0
   24.1250   12.5310   19.3880 C   0  0  0  0  0  0  0  0  0  0  0  0
   23.9120   13.5280   19.0300 H   0  0  0  0  0  0  0  0  0  0  0  0
   23.3810   12.0270   20.4560 C   0  0  0  0  0  0  0  0  0  0  0  0
   22.6800   12.6470   20.9950 H   0  0  0  0  0  0  0  0  0  0  0  0
   21.9850    9.9220   24.3570 C   0  0  3  0  0  0  0  0  0  0  0  0
   21.1930    9.2360   24.0580 H   0  0  0  0  0  0  0  0  0  0  0  0
   23.1210    9.1940   24.7660 O   0  0  0  0  0  0  0  0  0  0  0  0
   23.7960    9.8280   25.0210 H   0  0  0  0  0  0  0  0  0  0  0  0
   21.4100   10.8130   25.5240 C   0  0  0  0  0  0  0  0  0  0  0  0
   22.0120   11.7170   25.6200 H   0  0  0  0  0  0  0  0  0  0  0  0
   21.4450   10.2530   26.4580 H   0  0  0  0  0  0  0  0  0  0  0  0
   20.0540   11.1730   25.2350 N   0  0  0  0  0  0  0  0  0  0  0  0
   18.9350   10.4560   25.3750 C   0  0  0  0  0  0  0  0  0  0  0  0
   18.8680    9.4190   25.6700 H   0  0  0  0  0  0  0  0  0  0  0  0
   19.6730   12.4440   24.9860 N   0  0  0  0  0  0  0  0  0  0  0  0
   18.3160   12.5470   24.9410 N   0  0  0  0  0  0  0  0  0  0  0  0
   17.8980   11.2810   25.0750 C   0  0  0  0  0  0  0  0  0  0  0  0
   16.4990   10.9680   25.2660 C   0  0  0  0  0  0  0  0  0  0  0  0
   16.0140    9.5490   25.1480 C   0  0  0  0  0  0  0  0  0  0  0  0
   16.7920    8.8690   25.4950 H   0  0  0  0  0  0  0  0  0  0  0  0
   15.7790    9.3310   24.1060 H   0  0  0  0  0  0  0  0  0  0  0  0
   15.1200    9.4190   25.7570 H   0  0  0  0  0  0  0  0  0  0  0  0
   15.7360   12.1170   24.9000 O   0  0  0  0  0  0  0  0  0  0  0  0
  1  2  1  0  0  0  0
  1  3  1  0  0  0  0
  1 11  2  0  0  0  0
  3  4  1  0  0  0  0
  3  5  2  0  0  0  0
  5  6  1  0  0  0  0
  5  7  1  0  0  0  0
  7  8  1  0  0  0  0
  7  9  2  0  0  0  0
  9 10  1  0  0  0  0
  9 11  1  0  0  0  0
 11 12  1  0  0  0  0
 12 13  1  0  0  0  0
 12 14  1  0  0  0  0
 12 18  1  0  0  0  0
 14 15  1  0  0  0  0
 14 16  1  0  0  0  0
 14 17  1  0  0  0  0
 18 19  1  0  0  0  0
 18 20  1  0  0  0  0
 20 21  2  0  0  0  0
 20 22  1  0  0  0  0
 22 23  1  0  0  0  0
 22 25  2  0  0  0  0
 23 24  1  0  0  0  0
 23 42  2  0  0  0  0
 25 26  1  0  0  0  0
 25 27  1  0  0  0  0
 27 28  1  0  0  0  0
 27 40  2  0  0  0  0
 28 29  1  0  0  0  0
 28 33  1  0  0  0  0
 29 30  1  0  0  0  0
 29 31  1  0  0  0  0
 29 32  1  0  0  0  0
 33 34  1  0  0  0  0
 33 38  2  0  0  0  0
 33 39  2  0  0  0  0
 34 35  1  0  0  0  0
 34 36  1  0  0  0  0
 34 37  1  0  0  0  0
 40 41  1  0  0  0  0
 40 42  1  0  0  0  0
 42 43  1  0  0  0  0
 43 44  2  0  0  0  0
 43 45  1  0  0  0  0
 45 46  1  0  0  0  0
 45 47  1  0  0  0  0
 47 48  1  0  0  0  0
 47 49  1  0  0  0  0
 47 63  1  0  0  0  0
 49 50  1  0  0  0  0
 49 51  1  0  0  0  0
 49 52  1  0  0  0  0
 52 53  1  0  0  0  0
 52 61  2  0  0  0  0
 53 54  1  0  0  0  0
 53 55  2  0  0  0  0
 55 56  1  0  0  0  0
 55 57  1  0  0  0  0
 57 58  1  0  0  0  0
 57 59  2  0  0  0  0
 59 60  1  0  0  0  0
 59 61  1  0  0  0  0
 61 62  1  0  0  0  0
 63 64  1  0  0  0  0
 63 65  1  0  0  0  0
 63 67  1  0  0  0  0
 65 66  1  0  0  0  0
 67 68  1  0  0  0  0
 67 69  1  0  0  0  0
 67 70  1  0  0  0  0
 70 71  1  0  0  0  0
 70 73  1  0  0  0  0
 71 72  1  0  0  0  0
 71 75  2  0  0  0  0
 73 74  2  0  0  0  0
 74 75  1  0  0  0  0
 75 76  1  0  0  0  0
 76 77  1  0  0  0  0
 76 81  2  0  0  0  0
 77 78  1  0  0  0  0
 77 79  1  0  0  0  0
 77 80  1  0  0  0  0
M  END
>  <PARENT_CMPD_ID>
3UQX

>  <JOURNAL>
To be Published

>  <Resolution>
1.7

>  <idx>
211

>  <Model>
Test

>  <des_pred_mlr>
7.6289501

>  <RF_Canvas>
7.5907283

>  <DNN_Canvas>
7.0062981

>  <pred_CoMFA>
7.5862999

>  <pred_COMSIA>
7.7591

>  <pred_abm5>
7.6679153

>  <pred_ff8>
7.9079032

>  <pred_gau6>
7.9029083

>  <CID>
BACE_211

>  <RF_canvas>
1

>  <DNN_canvas>
1

$$$$
4FCO_
  MOE2015           3D

108112  0  0  1  0  0  0  0  0999 V2000
   31.9200   10.1940   22.2450 C   0  0  0  0  0  0  0  0  0  0  0  0
   32.7160    9.4680   23.1330 C   0  0  0  0  0  0  0  0  0  0  0  0
   32.1440    8.5340   23.9960 C   0  0  0  0  0  0  0  0  0  0  0  0
   30.7440    8.3220   24.0050 C   0  0  0  0  0  0  0  0  0  0  0  0
   29.9440    9.0580   23.1390 C   0  0  0  0  0  0  0  0  0  0  0  0
   30.5290    9.9840   22.2590 C   0  0  0  0  0  0  0  0  0  0  0  0
   29.6300   10.7470   21.3370 C   0  0  3  0  0  0  0  0  0  0  0  0
   28.9270    9.7830   20.3780 C   0  0  0  0  0  0  0  0  0  0  0  0
   28.6020   11.4590   22.1170 N   0  0  0  0  0  0  0  0  0  0  0  0
   28.6570   12.8830   22.3040 C   0  0  0  0  0  0  0  0  0  0  0  0
   29.5140   13.5930   21.7940 O   0  0  0  0  0  0  0  0  0  0  0  0
   27.5420   13.4390   23.1540 C   0  0  0  0  0  0  0  0  0  0  0  0
   26.2660   12.9120   23.0020 C   0  0  0  0  0  0  0  0  0  0  0  0
   27.7930   14.4460   24.0990 C   0  0  0  0  0  0  0  0  0  0  0  0
   26.7220   14.9180   24.8810 C   0  0  0  0  0  0  0  0  0  0  0  0
   26.9120   15.9810   25.8740 N   0  0  0  0  0  0  0  0  0  0  0  0
   25.8420   16.9230   26.1200 C   0  0  0  0  0  0  0  0  0  0  0  0
   28.3550   16.0990   26.6950 S   0  0  0  0  0  0  0  0  0  0  0  0
   29.3900   17.2400   25.8440 C   0  0  0  0  0  0  0  0  0  0  0  0
   29.0450   14.8130   26.7310 O   0  0  0  0  0  0  0  0  0  0  0  0
   28.0560   16.6300   28.0330 O   0  0  0  0  0  0  0  0  0  0  0  0
   25.4390   14.4120   24.7320 C   0  0  0  0  0  0  0  0  0  0  0  0
   25.2170   13.4120   23.7930 C   0  0  0  0  0  0  0  0  0  0  0  0
   23.8730   12.8410   23.6170 C   0  0  0  0  0  0  0  0  0  0  0  0
   22.8530   13.4860   23.6870 O   0  0  0  0  0  0  0  0  0  0  0  0
   23.8700   11.4270   23.3770 N   0  0  0  0  0  0  0  0  0  0  0  0
   22.6040   10.6930   23.1470 C   0  0  3  0  0  0  0  0  0  0  0  0
   22.9710    9.8000   21.9550 C   0  0  0  0  0  0  0  0  0  0  0  0
   23.7630   10.4610   20.7980 C   0  0  0  0  0  0  0  0  0  0  0  0
   24.7930    9.7390   20.1440 C   0  0  0  0  0  0  0  0  0  0  0  0
   25.5010   10.3260   19.0900 C   0  0  0  0  0  0  0  0  0  0  0  0
   25.1930   11.6200   18.6950 C   0  0  0  0  0  0  0  0  0  0  0  0
   24.1610   12.3420   19.3500 C   0  0  0  0  0  0  0  0  0  0  0  0
   23.4550   11.7550   20.3920 C   0  0  0  0  0  0  0  0  0  0  0  0
   22.0720    9.8450   24.2710 C   0  0  3  0  0  0  0  0  0  0  0  0
   21.0420    9.0350   23.8910 O   0  0  0  0  0  0  0  0  0  0  0  0
   21.5710   10.7820   25.3950 C   0  0  0  0  0  0  0  0  0  0  0  0
   21.0330    9.9930   26.5390 N   0  3  0  0  0  0  0  0  0  0  0  0
   19.9250   10.6790   27.2050 C   0  0  0  0  0  0  0  0  0  0  0  0
   20.2610   11.9250   28.0250 C   0  0  0  0  0  0  0  0  0  0  0  0
   18.9810   12.5280   28.7600 C   0  0  0  0  0  0  0  0  0  0  0  0
   18.0590   12.9230   27.7520 C   0  0  0  0  0  0  0  0  0  0  0  0
   16.8010   13.4910   28.3360 C   0  0  0  0  0  0  0  0  0  0  0  0
   19.3340   13.6650   29.6300 C   0  0  0  0  0  0  0  0  0  0  0  0
   18.0940   14.2300   30.2260 C   0  0  0  0  0  0  0  0  0  0  0  0
   17.0550   14.5740   29.2730 N   0  3  0  0  0  0  0  0  0  0  0  0
   15.9280   15.3070   29.9610 C   0  0  0  0  0  0  0  0  0  0  0  0
   15.1320   16.0770   28.9010 C   0  0  0  0  0  0  0  0  0  0  0  0
   15.6390   17.2580   28.3660 C   0  0  0  0  0  0  0  0  0  0  0  0
   14.9130   17.9560   27.3960 C   0  0  0  0  0  0  0  0  0  0  0  0
   13.6480   17.4470   26.9520 C   0  0  0  0  0  0  0  0  0  0  0  0
   13.1400   16.2650   27.4820 C   0  0  0  0  0  0  0  0  0  0  0  0
   13.8650   15.5680   28.4520 C   0  0  0  0  0  0  0  0  0  0  0  0
   32.3630   10.9030   21.5610 H   0  0  0  0  0  0  0  0  0  0  0  0
   33.7830    9.6310   23.1520 H   0  0  0  0  0  0  0  0  0  0  0  0
   32.7750    7.9670   24.6640 H   0  0  0  0  0  0  0  0  0  0  0  0
   30.3040    7.5990   24.6750 H   0  0  0  0  0  0  0  0  0  0  0  0
   28.8730    8.9180   23.1420 H   0  0  0  0  0  0  0  0  0  0  0  0
   30.2330   11.4590   20.7740 H   0  0  0  0  0  0  0  0  0  0  0  0
   28.3270    9.0750   20.9500 H   0  0  0  0  0  0  0  0  0  0  0  0
   29.6730    9.2410   19.7970 H   0  0  0  0  0  0  0  0  0  0  0  0
   28.2810   10.3470   19.7050 H   0  0  0  0  0  0  0  0  0  0  0  0
   27.8430   10.9350   22.5290 H   0  0  0  0  0  0  0  0  0  0  0  0
   26.0820   12.1270   22.2840 H   0  0  0  0  0  0  0  0  0  0  0  0
   28.7870   14.8500   24.2230 H   0  0  0  0  0  0  0  0  0  0  0  0
   24.9890   16.6770   25.4880 H   0  0  0  0  0  0  0  0  0  0  0  0
   26.1860   17.9310   25.8900 H   0  0  0  0  0  0  0  0  0  0  0  0
   25.5450   16.8710   27.1680 H   0  0  0  0  0  0  0  0  0  0  0  0
   29.6170   16.8540   24.8500 H   0  0  0  0  0  0  0  0  0  0  0  0
   30.3170   17.3750   26.4010 H   0  0  0  0  0  0  0  0  0  0  0  0
   28.8770   18.1980   25.7530 H   0  0  0  0  0  0  0  0  0  0  0  0
   24.6260   14.7890   25.3360 H   0  0  0  0  0  0  0  0  0  0  0  0
   24.7450   10.9230   23.3650 H   0  0  0  0  0  0  0  0  0  0  0  0
   21.7910   11.4060   23.0100 H   0  0  0  0  0  0  0  0  0  0  0  0
   22.0420    9.4110   21.5380 H   0  0  0  0  0  0  0  0  0  0  0  0
   23.5720    8.9740   22.3360 H   0  0  0  0  0  0  0  0  0  0  0  0
   25.0310    8.7340   20.4600 H   0  0  0  0  0  0  0  0  0  0  0  0
   26.2820    9.7760   18.5870 H   0  0  0  0  0  0  0  0  0  0  0  0
   25.7410   12.0800   17.8860 H   0  0  0  0  0  0  0  0  0  0  0  0
   23.9250   13.3490   19.0380 H   0  0  0  0  0  0  0  0  0  0  0  0
   22.6670   12.3030   20.8870 H   0  0  0  0  0  0  0  0  0  0  0  0
   22.8850    9.2000   24.6060 H   0  0  0  0  0  0  0  0  0  0  0  0
   20.3230    9.5990   23.5950 H   0  0  0  0  0  0  0  0  0  0  0  0
   20.7830   11.4240   25.0010 H   0  0  0  0  0  0  0  0  0  0  0  0
   22.4000   11.3980   25.7440 H   0  0  0  0  0  0  0  0  0  0  0  0
   21.7740    9.8430   27.2090 H   0  0  0  0  0  0  0  0  0  0  0  0
   20.7050    9.1020   26.1950 H   0  0  0  0  0  0  0  0  0  0  0  0
   19.4530    9.9620   27.8770 H   0  0  0  0  0  0  0  0  0  0  0  0
   19.2140   10.9770   26.4340 H   0  0  0  0  0  0  0  0  0  0  0  0
   20.6720   12.6830   27.3580 H   0  0  0  0  0  0  0  0  0  0  0  0
   21.0050   11.6600   28.7770 H   0  0  0  0  0  0  0  0  0  0  0  0
   18.5390   11.7740   29.4110 H   0  0  0  0  0  0  0  0  0  0  0  0
   17.8050   12.0530   27.1470 H   0  0  0  0  0  0  0  0  0  0  0  0
   18.5280   13.6790   27.1220 H   0  0  0  0  0  0  0  0  0  0  0  0
   16.2690   12.6960   28.8580 H   0  0  0  0  0  0  0  0  0  0  0  0
   16.1800   13.8710   27.5240 H   0  0  0  0  0  0  0  0  0  0  0  0
   19.8370   14.4320   29.0410 H   0  0  0  0  0  0  0  0  0  0  0  0
   19.9970   13.3230   30.4250 H   0  0  0  0  0  0  0  0  0  0  0  0
   18.3630   15.1340   30.7730 H   0  0  0  0  0  0  0  0  0  0  0  0
   17.6860   13.4940   30.9190 H   0  0  0  0  0  0  0  0  0  0  0  0
   17.3460   15.2780   28.6090 H   0  0  0  0  0  0  0  0  0  0  0  0
   16.3350   16.0040   30.6930 H   0  0  0  0  0  0  0  0  0  0  0  0
   15.2760   14.5920   30.4630 H   0  0  0  0  0  0  0  0  0  0  0  0
   16.5940   17.6350   28.7000 H   0  0  0  0  0  0  0  0  0  0  0  0
   15.3030   18.8740   26.9830 H   0  0  0  0  0  0  0  0  0  0  0  0
   13.0860   17.9840   26.2020 H   0  0  0  0  0  0  0  0  0  0  0  0
   12.1870   15.8870   27.1440 H   0  0  0  0  0  0  0  0  0  0  0  0
   13.4740   14.6490   28.8630 H   0  0  0  0  0  0  0  0  0  0  0  0
  1  2  1  0  0  0  0
  1  6  2  0  0  0  0
  1 54  1  0  0  0  0
  2  3  2  0  0  0  0
  2 55  1  0  0  0  0
  3  4  1  0  0  0  0
  3 56  1  0  0  0  0
  4  5  2  0  0  0  0
  4 57  1  0  0  0  0
  5  6  1  0  0  0  0
  5 58  1  0  0  0  0
  6  7  1  0  0  0  0
  7  8  1  0  0  0  0
  7  9  1  0  0  0  0
  7 59  1  0  0  0  0
  8 60  1  0  0  0  0
  8 61  1  0  0  0  0
  8 62  1  0  0  0  0
  9 10  1  0  0  0  0
  9 63  1  0  0  0  0
 10 11  2  0  0  0  0
 10 12  1  0  0  0  0
 12 13  1  0  0  0  0
 12 14  2  0  0  0  0
 13 23  2  0  0  0  0
 13 64  1  0  0  0  0
 14 15  1  0  0  0  0
 14 65  1  0  0  0  0
 15 16  1  0  0  0  0
 15 22  2  0  0  0  0
 16 17  1  0  0  0  0
 16 18  1  0  0  0  0
 17 66  1  0  0  0  0
 17 67  1  0  0  0  0
 17 68  1  0  0  0  0
 18 19  1  0  0  0  0
 18 20  2  0  0  0  0
 18 21  2  0  0  0  0
 19 69  1  0  0  0  0
 19 70  1  0  0  0  0
 19 71  1  0  0  0  0
 22 23  1  0  0  0  0
 22 72  1  0  0  0  0
 23 24  1  0  0  0  0
 24 25  2  0  0  0  0
 24 26  1  0  0  0  0
 26 27  1  0  0  0  0
 26 73  1  0  0  0  0
 27 28  1  0  0  0  0
 27 35  1  0  0  0  0
 27 74  1  0  0  0  0
 28 29  1  0  0  0  0
 28 75  1  0  0  0  0
 28 76  1  0  0  0  0
 29 30  1  0  0  0  0
 29 34  2  0  0  0  0
 30 31  2  0  0  0  0
 30 77  1  0  0  0  0
 31 32  1  0  0  0  0
 31 78  1  0  0  0  0
 32 33  2  0  0  0  0
 32 79  1  0  0  0  0
 33 34  1  0  0  0  0
 33 80  1  0  0  0  0
 34 81  1  0  0  0  0
 35 36  1  0  0  0  0
 35 37  1  0  0  0  0
 35 82  1  0  0  0  0
 36 83  1  0  0  0  0
 37 38  1  0  0  0  0
 37 84  1  0  0  0  0
 37 85  1  0  0  0  0
 38 39  1  0  0  0  0
 38 86  1  0  0  0  0
 38 87  1  0  0  0  0
 39 40  1  0  0  0  0
 39 88  1  0  0  0  0
 39 89  1  0  0  0  0
 40 41  1  0  0  0  0
 40 90  1  0  0  0  0
 40 91  1  0  0  0  0
 41 42  1  0  0  0  0
 41 44  1  0  0  0  0
 41 92  1  0  0  0  0
 42 43  1  0  0  0  0
 42 93  1  0  0  0  0
 42 94  1  0  0  0  0
 43 46  1  0  0  0  0
 43 95  1  0  0  0  0
 43 96  1  0  0  0  0
 44 45  1  0  0  0  0
 44 97  1  0  0  0  0
 44 98  1  0  0  0  0
 45 46  1  0  0  0  0
 45 99  1  0  0  0  0
 45100  1  0  0  0  0
 46 47  1  0  0  0  0
 46101  1  0  0  0  0
 47 48  1  0  0  0  0
 47102  1  0  0  0  0
 47103  1  0  0  0  0
 48 49  1  0  0  0  0
 48 53  2  0  0  0  0
 49 50  2  0  0  0  0
 49104  1  0  0  0  0
 50 51  1  0  0  0  0
 50105  1  0  0  0  0
 51 52  2  0  0  0  0
 51106  1  0  0  0  0
 52 53  1  0  0  0  0
 52107  1  0  0  0  0
 53108  1  0  0  0  0
M  CHG  1  38   1
M  CHG  1  46   1
M  END
>  <PARENT_CMPD_ID>
4FCO

>  <JOURNAL>
To be Published

>  <Resolution>
1.76

>  <idx>
212

>  <Model>
Test

>  <des_pred_mlr>
8.0950699

>  <RF_Canvas>
7.351697

>  <DNN_Canvas>
6.9292717

>  <pred_CoMFA>
7.5054998

>  <pred_COMSIA>
7.4840002

>  <pred_abm5>
7.3903751

>  <pred_ff8>
8.4338284

>  <pred_gau6>
7.5944324

>  <CID>
BACE_212

>  <RF_canvas>
0

>  <DNN_canvas>
1

$$$$
4I12_3075
  MOE2015           3D

 68 72  0  0  1  0  0  0  0  0999 V2000
   21.1250   15.2710   17.5400 Cl  0  0  0  0  0  0  0  0  0  0  0  0
   22.3090   14.5790   18.7170 C   0  0  0  0  0  0  0  0  0  0  0  0
   23.4700   15.2990   19.0880 C   0  0  0  0  0  0  0  0  0  0  0  0
   24.3890   14.7290   19.9890 C   0  0  0  0  0  0  0  0  0  0  0  0
   24.1160   13.4440   20.4510 C   0  0  0  0  0  0  0  0  0  0  0  0
   25.0990   12.8150   21.3870 C   0  0  0  0  0  0  0  0  0  0  0  0
   25.0100   11.5700   21.5800 N   0  3  0  0  0  0  0  0  0  0  0  0
   24.1850   10.9180   20.6000 C   0  0  0  0  0  0  0  0  0  0  0  0
   23.9440    9.5940   21.4200 C   0  0  0  0  0  0  0  0  0  0  0  0
   24.7770   10.1650   19.4060 C   0  0  0  0  0  0  0  0  0  0  0  0
   22.7540   11.3100   20.5510 C   0  0  0  0  0  0  0  0  0  0  0  0
   22.9560   12.7310   20.0770 C   0  0  0  0  0  0  0  0  0  0  0  0
   22.0480   13.2740   19.1790 C   0  0  0  0  0  0  0  0  0  0  0  0
   25.9640   13.5940   22.0320 N   0  0  0  0  0  0  0  0  0  0  0  0
   27.0610   13.1450   22.8270 C   0  0  3  0  0  0  0  0  0  0  0  0
   28.3680   13.3910   22.0420 C   0  0  0  0  0  0  0  0  0  0  0  0
   28.4840   12.3410   20.9420 C   0  0  3  0  0  0  0  0  0  0  0  0
   28.1990   12.4420   19.4520 C   0  0  0  0  0  0  0  0  0  0  0  0
   28.3300   11.3650   18.6170 C   0  0  0  0  0  0  0  0  0  0  0  0
   28.8770   10.1190   19.6400 S   0  0  0  0  0  0  0  0  0  0  0  0
   28.8910   10.9560   21.1910 C   0  0  3  0  0  0  0  0  0  0  0  0
   29.3220   10.3030   22.4930 C   0  0  0  0  0  0  0  0  0  0  0  0
   29.7800    8.8490   22.4720 C   0  0  0  0  0  0  0  0  0  0  0  0
   30.4310    8.5410   23.8280 C   0  0  0  0  0  0  0  0  0  0  0  0
   27.6910   13.6740   18.8360 C   0  0  0  0  0  0  0  0  0  0  0  0
   26.8270   13.6820   17.7510 C   0  0  0  0  0  0  0  0  0  0  0  0
   26.5630   15.0150   17.5370 N   0  0  0  0  0  0  0  0  0  0  0  0
   27.2810   15.7550   18.5240 N   0  0  0  0  0  0  0  0  0  0  0  0
   27.9870   14.9270   19.3240 C   0  0  0  0  0  0  0  0  0  0  0  0
   27.0630   14.0400   24.0500 C   0  0  0  0  0  0  0  0  0  0  0  0
   28.1150   14.0590   24.8720 N   0  0  0  0  0  0  0  0  0  0  0  0
   28.1700   14.8860   25.9660 C   0  0  0  0  0  0  0  0  0  0  0  0
   27.1220   15.7940   26.2050 C   0  0  0  0  0  0  0  0  0  0  0  0
   26.0320   15.7690   25.3190 C   0  0  0  0  0  0  0  0  0  0  0  0
   26.0550   14.9050   24.2580 N   0  0  0  0  0  0  0  0  0  0  0  0
   29.1710   14.8340   26.7150 O   0  0  0  0  0  0  0  0  0  0  0  0
   23.6500   16.2830   18.6810 H   0  0  0  0  0  0  0  0  0  0  0  0
   25.2700   15.2660   20.3090 H   0  0  0  0  0  0  0  0  0  0  0  0
   25.4680   11.0860   22.3390 H   0  0  0  0  0  0  0  0  0  0  0  0
   24.8980    9.0960   21.5940 H   0  0  0  0  0  0  0  0  0  0  0  0
   23.2860    8.9320   20.8570 H   0  0  0  0  0  0  0  0  0  0  0  0
   23.4820    9.8380   22.3770 H   0  0  0  0  0  0  0  0  0  0  0  0
   25.8290    9.9520   19.5960 H   0  0  0  0  0  0  0  0  0  0  0  0
   24.6870   10.7780   18.5090 H   0  0  0  0  0  0  0  0  0  0  0  0
   24.2370    9.2290   19.2630 H   0  0  0  0  0  0  0  0  0  0  0  0
   22.2770   11.2630   21.5300 H   0  0  0  0  0  0  0  0  0  0  0  0
   22.1840   10.7120   19.8400 H   0  0  0  0  0  0  0  0  0  0  0  0
   21.1810   12.7210   18.8490 H   0  0  0  0  0  0  0  0  0  0  0  0
   25.8320   14.5920   21.9520 H   0  0  0  0  0  0  0  0  0  0  0  0
   26.9830   12.0880   23.0830 H   0  0  0  0  0  0  0  0  0  0  0  0
   29.2210   13.3120   22.7160 H   0  0  0  0  0  0  0  0  0  0  0  0
   28.3470   14.3860   21.5980 H   0  0  0  0  0  0  0  0  0  0  0  0
   29.5230   12.6240   20.7710 H   0  0  0  0  0  0  0  0  0  0  0  0
   28.1320   11.3170   17.5560 H   0  0  0  0  0  0  0  0  0  0  0  0
   29.9270   11.2450   21.0110 H   0  0  0  0  0  0  0  0  0  0  0  0
   28.4750   10.3620   23.1760 H   0  0  0  0  0  0  0  0  0  0  0  0
   30.1490   10.8930   22.8880 H   0  0  0  0  0  0  0  0  0  0  0  0
   30.5040    8.7000   21.6710 H   0  0  0  0  0  0  0  0  0  0  0  0
   28.9240    8.1930   22.3140 H   0  0  0  0  0  0  0  0  0  0  0  0
   31.2860    9.2000   23.9790 H   0  0  0  0  0  0  0  0  0  0  0  0
   30.7650    7.5040   23.8430 H   0  0  0  0  0  0  0  0  0  0  0  0
   29.7040    8.7010   24.6250 H   0  0  0  0  0  0  0  0  0  0  0  0
   26.4480   12.8340   17.2000 H   0  0  0  0  0  0  0  0  0  0  0  0
   25.9710   15.3990   16.8150 H   0  0  0  0  0  0  0  0  0  0  0  0
   28.6310   15.1860   20.1510 H   0  0  0  0  0  0  0  0  0  0  0  0
   28.8950   13.4460   24.6830 H   0  0  0  0  0  0  0  0  0  0  0  0
   27.1540   16.4830   27.0360 H   0  0  0  0  0  0  0  0  0  0  0  0
   25.1870   16.4230   25.4730 H   0  0  0  0  0  0  0  0  0  0  0  0
  1  2  1  0  0  0  0
  2  3  1  0  0  0  0
  2 13  2  0  0  0  0
  3  4  2  0  0  0  0
  3 37  1  0  0  0  0
  4  5  1  0  0  0  0
  4 38  1  0  0  0  0
  5  6  1  0  0  0  0
  5 12  2  0  0  0  0
  6  7  2  0  0  0  0
  6 14  1  0  0  0  0
  7  8  1  0  0  0  0
  7 39  1  0  0  0  0
  8  9  1  0  0  0  0
  8 10  1  0  0  0  0
  8 11  1  0  0  0  0
  9 40  1  0  0  0  0
  9 41  1  0  0  0  0
  9 42  1  0  0  0  0
 10 43  1  0  0  0  0
 10 44  1  0  0  0  0
 10 45  1  0  0  0  0
 11 12  1  0  0  0  0
 11 46  1  0  0  0  0
 11 47  1  0  0  0  0
 12 13  1  0  0  0  0
 13 48  1  0  0  0  0
 14 15  1  0  0  0  0
 14 49  1  0  0  0  0
 15 16  1  0  0  0  0
 15 30  1  0  0  0  0
 15 50  1  0  0  0  0
 16 17  1  0  0  0  0
 16 51  1  0  0  0  0
 16 52  1  0  0  0  0
 17 18  1  0  0  0  0
 17 21  1  0  0  0  0
 17 53  1  0  0  0  0
 18 19  2  0  0  0  0
 18 25  1  0  0  0  0
 19 20  1  0  0  0  0
 19 54  1  0  0  0  0
 20 21  1  0  0  0  0
 21 22  1  0  0  0  0
 21 55  1  0  0  0  0
 22 23  1  0  0  0  0
 22 56  1  0  0  0  0
 22 57  1  0  0  0  0
 23 24  1  0  0  0  0
 23 58  1  0  0  0  0
 23 59  1  0  0  0  0
 24 60  1  0  0  0  0
 24 61  1  0  0  0  0
 24 62  1  0  0  0  0
 25 26  2  0  0  0  0
 25 29  1  0  0  0  0
 26 27  1  0  0  0  0
 26 63  1  0  0  0  0
 27 28  1  0  0  0  0
 27 64  1  0  0  0  0
 28 29  2  0  0  0  0
 29 65  1  0  0  0  0
 30 31  1  0  0  0  0
 30 35  2  0  0  0  0
 31 32  1  0  0  0  0
 31 66  1  0  0  0  0
 32 33  1  0  0  0  0
 32 36  2  0  0  0  0
 33 34  2  0  0  0  0
 33 67  1  0  0  0  0
 34 35  1  0  0  0  0
 34 68  1  0  0  0  0
M  CHG  1   7   1
M  END
>  <PARENT_CMPD_ID>
4I12

>  <STANDARD_TYPE>
IC50

>  <RELATION>
=

>  <COMPOUND_KEY>
9

>  <PUBMED_ID>
23570791

>  <JOURNAL>
Bioorg.Med.Chem.Lett.

>  <YEAR>
2013

>  <VOLUME>
23

>  <FIRST_PAGE>
3075

>  <Company>
Elan

>  <Resolution>
1.78

>  <idx>
213

>  <Model>
Test

>  <des_pred_mlr>
6.5026598

>  <RF_Canvas>
7.2526603

>  <DNN_Canvas>
7.728065

>  <pred_CoMFA>
7.5451002

>  <pred_COMSIA>
7.5874

>  <pred_abm5>
7.667161

>  <pred_ff8>
5.0289917

>  <pred_gau6>
7.7866955

>  <CID>
BACE_213

>  <RF_canvas>
1

>  <DNN_canvas>
0

$$$$
2NTR_1117
  MOE2015           3D

 74 77  0  0  1  0  0  0  0  0999 V2000
   28.7040   13.8040   22.1330 N   0  0  0  0  0  0  0  0  0  0  0  0
   27.6860   14.2270   22.9730 C   0  0  0  0  0  0  0  0  0  0  0  0
   26.3770   13.6490   22.9340 C   0  0  0  0  0  0  0  0  0  0  0  0
   25.4100   14.1530   23.8320 C   0  0  0  0  0  0  0  0  0  0  0  0
   25.7520   15.1960   24.7380 C   0  0  0  0  0  0  0  0  0  0  0  0
   27.0550   15.7490   24.7430 C   0  0  0  0  0  0  0  0  0  0  0  0
   27.9490   15.2430   23.8640 N   0  0  0  0  0  0  0  0  0  0  0  0
   27.4630   16.7390   25.6120 N   0  0  0  0  0  0  0  0  0  0  0  0
   28.8010   16.5010   26.5160 S   0  0  0  0  0  0  0  0  0  0  0  0
   30.1930   17.1370   25.5590 C   0  0  0  0  0  0  0  0  0  0  0  0
   26.9260   18.1040   25.4750 C   0  0  0  0  0  0  0  0  0  0  0  0
   28.9920   15.0890   26.6600 O   0  0  0  0  0  0  0  0  0  0  0  0
   28.6660   17.2980   27.6990 O   0  0  0  0  0  0  0  0  0  0  0  0
   22.3460   10.4110   23.2640 C   0  0  3  0  0  0  0  0  0  0  0  0
   23.4090    9.5770   23.8490 N   0  3  0  0  0  0  0  0  0  0  0  0
   21.0240   10.1210   24.0190 C   0  0  0  0  0  0  0  0  0  0  0  0
   22.1960   10.3020   21.7210 C   0  0  0  0  0  0  0  0  0  0  0  0
   25.3460   12.0270   19.2560 C   0  0  0  0  0  0  0  0  0  0  0  0
   24.1580   12.8190   19.5440 C   0  0  0  0  0  0  0  0  0  0  0  0
   23.1040   12.2270   20.3410 C   0  0  0  0  0  0  0  0  0  0  0  0
   23.2850   10.8650   20.8410 C   0  0  0  0  0  0  0  0  0  0  0  0
   24.4840   10.0750   20.5600 C   0  0  0  0  0  0  0  0  0  0  0  0
   25.5410   10.6720   19.7510 C   0  0  0  0  0  0  0  0  0  0  0  0
   22.0420   12.9470   23.8150 N   0  0  0  0  0  0  0  0  0  0  0  0
   22.8710   13.9060   23.9270 N   0  0  0  0  0  0  0  0  0  0  0  0
   24.1380   13.4400   23.7750 C   0  0  0  0  0  0  0  0  0  0  0  0
   24.0120   12.1510   23.5300 O   0  0  0  0  0  0  0  0  0  0  0  0
   22.7340   11.8320   23.5610 C   0  0  0  0  0  0  0  0  0  0  0  0
   28.5550   12.7380   21.1130 C   0  0  0  0  0  0  0  0  0  0  0  0
   30.0340   14.4150   22.2340 C   0  0  0  0  0  0  0  0  0  0  0  0
   24.6420   15.7380   25.9190 Cl  0  0  0  0  0  0  0  0  0  0  0  0
   30.1030   15.7890   21.5690 C   0  0  0  0  0  0  0  0  0  0  0  0
   29.8860   15.7160   20.1600 O   0  0  0  0  0  0  0  0  0  0  0  0
   31.0910   15.3430   19.4780 C   0  0  0  0  0  0  0  0  0  0  0  0
   29.9700   10.6660   21.8990 C   0  0  3  0  0  0  0  0  0  0  0  0
   28.6430   11.3900   21.7470 C   0  0  3  0  0  0  0  0  0  0  0  0
   29.0670   10.3520   20.7300 C   0  0  0  0  0  0  0  0  0  0  0  0
   29.9190    9.7830   23.0740 C   0  0  0  0  0  0  0  0  0  0  0  0
   26.1370   12.8550   22.2420 H   0  0  0  0  0  0  0  0  0  0  0  0
   30.3130   16.5430   24.6530 H   0  0  0  0  0  0  0  0  0  0  0  0
   31.1030   17.0760   26.1560 H   0  0  0  0  0  0  0  0  0  0  0  0
   30.0040   18.1760   25.2900 H   0  0  0  0  0  0  0  0  0  0  0  0
   26.0380   18.0830   24.8430 H   0  0  0  0  0  0  0  0  0  0  0  0
   27.6800   18.7470   25.0210 H   0  0  0  0  0  0  0  0  0  0  0  0
   26.6630   18.4910   26.4590 H   0  0  0  0  0  0  0  0  0  0  0  0
   23.2030    8.6030   23.6810 H   0  0  0  0  0  0  0  0  0  0  0  0
   23.4590    9.7440   24.8440 H   0  0  0  0  0  0  0  0  0  0  0  0
   24.2940    9.8130   23.4240 H   0  0  0  0  0  0  0  0  0  0  0  0
   20.7120    9.0950   23.8250 H   0  0  0  0  0  0  0  0  0  0  0  0
   20.2500   10.8070   23.6740 H   0  0  0  0  0  0  0  0  0  0  0  0
   21.1790   10.2570   25.0890 H   0  0  0  0  0  0  0  0  0  0  0  0
   21.2710   10.8130   21.4530 H   0  0  0  0  0  0  0  0  0  0  0  0
   22.1080    9.2420   21.4820 H   0  0  0  0  0  0  0  0  0  0  0  0
   26.1200   12.4670   18.6450 H   0  0  0  0  0  0  0  0  0  0  0  0
   24.0650   13.8280   19.1700 H   0  0  0  0  0  0  0  0  0  0  0  0
   22.2030   12.7800   20.5620 H   0  0  0  0  0  0  0  0  0  0  0  0
   24.5840    9.0700   20.9440 H   0  0  0  0  0  0  0  0  0  0  0  0
   26.4440   10.1240   19.5250 H   0  0  0  0  0  0  0  0  0  0  0  0
   29.3480   12.8380   20.3720 H   0  0  0  0  0  0  0  0  0  0  0  0
   27.5860   12.8420   20.6250 H   0  0  0  0  0  0  0  0  0  0  0  0
   30.7570   13.7570   21.7520 H   0  0  0  0  0  0  0  0  0  0  0  0
   30.2880   14.5240   23.2880 H   0  0  0  0  0  0  0  0  0  0  0  0
   31.0880   16.2180   21.7510 H   0  0  0  0  0  0  0  0  0  0  0  0
   29.3400   16.4310   22.0090 H   0  0  0  0  0  0  0  0  0  0  0  0
   30.9010   15.2940   18.4060 H   0  0  0  0  0  0  0  0  0  0  0  0
   31.4230   14.3670   19.8330 H   0  0  0  0  0  0  0  0  0  0  0  0
   31.8650   16.0840   19.6760 H   0  0  0  0  0  0  0  0  0  0  0  0
   31.0330   10.9000   21.9520 H   0  0  0  0  0  0  0  0  0  0  0  0
   27.8490   11.5780   22.4700 H   0  0  0  0  0  0  0  0  0  0  0  0
   28.5510    9.3930   20.6830 H   0  0  0  0  0  0  0  0  0  0  0  0
   29.3520   10.6600   19.7240 H   0  0  0  0  0  0  0  0  0  0  0  0
   28.9010    9.4190   23.2110 H   0  0  0  0  0  0  0  0  0  0  0  0
   30.2290   10.3380   23.9590 H   0  0  0  0  0  0  0  0  0  0  0  0
   30.5890    8.9370   22.9220 H   0  0  0  0  0  0  0  0  0  0  0  0
  1  2  1  0  0  0  0
  1 29  1  0  0  0  0
  1 30  1  0  0  0  0
  2  3  1  0  0  0  0
  2  7  2  0  0  0  0
  3  4  2  0  0  0  0
  3 39  1  0  0  0  0
  4  5  1  0  0  0  0
  4 26  1  0  0  0  0
  5  6  2  0  0  0  0
  5 31  1  0  0  0  0
  6  7  1  0  0  0  0
  6  8  1  0  0  0  0
  8  9  1  0  0  0  0
  8 11  1  0  0  0  0
  9 10  1  0  0  0  0
  9 12  2  0  0  0  0
  9 13  2  0  0  0  0
 10 40  1  0  0  0  0
 10 41  1  0  0  0  0
 10 42  1  0  0  0  0
 11 43  1  0  0  0  0
 11 44  1  0  0  0  0
 11 45  1  0  0  0  0
 14 15  1  0  0  0  0
 14 16  1  0  0  0  0
 14 17  1  0  0  0  0
 14 28  1  0  0  0  0
 15 46  1  0  0  0  0
 15 47  1  0  0  0  0
 15 48  1  0  0  0  0
 16 49  1  0  0  0  0
 16 50  1  0  0  0  0
 16 51  1  0  0  0  0
 17 21  1  0  0  0  0
 17 52  1  0  0  0  0
 17 53  1  0  0  0  0
 18 19  1  0  0  0  0
 18 23  2  0  0  0  0
 18 54  1  0  0  0  0
 19 20  2  0  0  0  0
 19 55  1  0  0  0  0
 20 21  1  0  0  0  0
 20 56  1  0  0  0  0
 21 22  2  0  0  0  0
 22 23  1  0  0  0  0
 22 57  1  0  0  0  0
 23 58  1  0  0  0  0
 24 25  1  0  0  0  0
 24 28  2  0  0  0  0
 25 26  2  0  0  0  0
 26 27  1  0  0  0  0
 27 28  1  0  0  0  0
 29 36  1  0  0  0  0
 29 59  1  0  0  0  0
 29 60  1  0  0  0  0
 30 32  1  0  0  0  0
 30 61  1  0  0  0  0
 30 62  1  0  0  0  0
 32 33  1  0  0  0  0
 32 63  1  0  0  0  0
 32 64  1  0  0  0  0
 33 34  1  0  0  0  0
 34 65  1  0  0  0  0
 34 66  1  0  0  0  0
 34 67  1  0  0  0  0
 35 36  1  0  0  0  0
 35 37  1  0  0  0  0
 35 38  1  0  0  0  0
 35 68  1  0  0  0  0
 36 37  1  0  0  0  0
 36 69  1  0  0  0  0
 37 70  1  0  0  0  0
 37 71  1  0  0  0  0
 38 72  1  0  0  0  0
 38 73  1  0  0  0  0
 38 74  1  0  0  0  0
M  CHG  1  15   1
M  END
>  <PARENT_CMPD_ID>
2NTR

>  <PUBMED_ID>
17112725

>  <JOURNAL>
Bioorg.Med.Chem.Lett.

>  <YEAR>
2007

>  <VOLUME>
17

>  <FIRST_PAGE>
1117

>  <Company>
Merck

>  <Resolution>
1.8

>  <idx>
214

>  <Model>
Test

>  <des_pred_mlr>
6.7927399

>  <RF_Canvas>
7.473536

>  <DNN_Canvas>
8.047781

>  <pred_CoMFA>
6.5184002

>  <pred_COMSIA>
6.5812001

>  <pred_abm5>
6.9287958

>  <pred_ff8>
6.6895919

>  <pred_gau6>
7.1560822

>  <CID>
BACE_214

>  <RF_canvas>
1

>  <DNN_canvas>
0

$$$$
3UDJ_9069
  MOE2015           3D

 33 35  0  0  1  0  0  0  0  0999 V2000
   24.2560   10.2340   19.2960 C   0  0  0  0  0  0  0  0  0  0  0  0
   24.7480    9.4560   18.7310 H   0  0  0  0  0  0  0  0  0  0  0  0
   24.1720   11.5070   18.7730 C   0  0  0  0  0  0  0  0  0  0  0  0
   24.6210   11.7230   17.8150 H   0  0  0  0  0  0  0  0  0  0  0  0
   23.7180    9.9430   20.5340 C   0  0  0  0  0  0  0  0  0  0  0  0
   23.8110    8.9540   20.9570 H   0  0  0  0  0  0  0  0  0  0  0  0
   23.5220   12.5020   19.4610 C   0  0  0  0  0  0  0  0  0  0  0  0
   23.4300   13.4960   19.0500 H   0  0  0  0  0  0  0  0  0  0  0  0
   23.0620   10.9380   21.2150 C   0  0  0  0  0  0  0  0  0  0  0  0
   22.9930   12.1900   20.6890 C   0  0  0  0  0  0  0  0  0  0  0  0
   22.0240   12.3580   22.7480 C   0  0  0  0  0  0  0  0  0  0  0  0
   20.4730   10.1690   25.0820 C   0  0  0  0  0  0  0  0  0  0  0  0
   21.1650   10.0600   22.6390 C   0  0  0  0  0  0  0  0  0  0  0  0
   20.2750   10.6810   22.5390 H   0  0  0  0  0  0  0  0  0  0  0  0
   21.1690    9.3020   21.8560 H   0  0  0  0  0  0  0  0  0  0  0  0
   23.3830   10.4050   23.6120 C   0  0  0  0  0  0  0  0  0  0  0  0
   23.6730   11.2160   24.2800 H   0  0  0  0  0  0  0  0  0  0  0  0
   24.2730    9.9880   23.1400 H   0  0  0  0  0  0  0  0  0  0  0  0
   21.2060    9.4090   24.0060 C   0  0  3  0  0  0  0  0  0  0  0  0
   20.7100    8.4400   23.9460 H   0  0  0  0  0  0  0  0  0  0  0  0
   22.4150   10.9100   22.5590 C   0  0  3  0  0  0  0  0  0  0  0  0
   18.6490   11.2980   25.7790 C   0  0  0  0  0  0  0  0  0  0  0  0
   17.6280   11.5740   25.5180 H   0  0  0  0  0  0  0  0  0  0  0  0
   19.2480   12.2000   25.9070 H   0  0  0  0  0  0  0  0  0  0  0  0
   18.6450   10.7300   26.7090 H   0  0  0  0  0  0  0  0  0  0  0  0
   22.3370   13.0450   21.5850 N   0  0  0  0  0  0  0  0  0  0  0  0
   22.1240   14.0170   21.4100 H   0  0  0  0  0  0  0  0  0  0  0  0
   22.6500    9.3430   24.3700 N   0  3  0  0  0  0  0  0  0  0  0  0
   22.7580    9.4970   25.3620 H   0  0  0  0  0  0  0  0  0  0  0  0
   23.0210    8.4350   24.1280 H   0  0  0  0  0  0  0  0  0  0  0  0
   21.4030   12.7990   23.7110 O   0  0  0  0  0  0  0  0  0  0  0  0
   20.9500   10.4180   26.1750 O   0  0  0  0  0  0  0  0  0  0  0  0
   19.2070   10.5000   24.7370 O   0  0  0  0  0  0  0  0  0  0  0  0
  1  2  1  0  0  0  0
  1  3  2  0  0  0  0
  1  5  1  0  0  0  0
  3  4  1  0  0  0  0
  3  7  1  0  0  0  0
  5  6  1  0  0  0  0
  5  9  2  0  0  0  0
  7  8  1  0  0  0  0
  7 10  2  0  0  0  0
  9 10  1  0  0  0  0
  9 21  1  0  0  0  0
 10 26  1  0  0  0  0
 11 21  1  0  0  0  0
 11 26  1  0  0  0  0
 11 31  2  0  0  0  0
 12 19  1  0  0  0  0
 12 32  2  0  0  0  0
 12 33  1  0  0  0  0
 13 14  1  0  0  0  0
 13 15  1  0  0  0  0
 13 19  1  0  0  0  0
 13 21  1  0  0  0  0
 16 17  1  0  0  0  0
 16 18  1  0  0  0  0
 16 21  1  0  0  0  0
 16 28  1  0  0  0  0
 19 20  1  0  0  0  0
 19 28  1  0  0  0  0
 22 23  1  0  0  0  0
 22 24  1  0  0  0  0
 22 25  1  0  0  0  0
 22 33  1  0  0  0  0
 26 27  1  0  0  0  0
 28 29  1  0  0  0  0
 28 30  1  0  0  0  0
M  CHG  1  28   1
M  END
>  <PARENT_CMPD_ID>
3UDJ

>  <STANDARD_TYPE>
IC50

>  <RELATION>
=

>  <COMPOUND_KEY>
5

>  <PUBMED_ID>
22468999

>  <JOURNAL>
J.Med.Chem.

>  <YEAR>
2012

>  <VOLUME>
55

>  <FIRST_PAGE>
9069

>  <Company>
Pfizer

>  <Resolution>
1.8

>  <idx>
215

>  <Model>
Test

>  <des_pred_mlr>
4.5515499

>  <RF_Canvas>
4.1516609

>  <DNN_Canvas>
3.9878235

>  <pred_CoMFA>
2.9291999

>  <pred_COMSIA>
3.4217

>  <pred_abm5>
3.7079077

>  <pred_ff8>
4.789948

>  <pred_gau6>
3.1496506

>  <CID>
BACE_215

>  <RF_canvas>
0

>  <DNN_canvas>
0

$$$$
4GMI_
  MOE2015           3D

 79 81  0  0  1  0  0  0  0  0999 V2000
   22.9310   13.3440   23.0980 O   0  0  0  0  0  0  0  0  0  0  0  0
   23.9790   12.7440   23.1380 C   0  0  0  0  0  0  0  0  0  0  0  0
   25.2190   13.5470   23.3540 C   0  0  0  0  0  0  0  0  0  0  0  0
   25.1760   14.5460   24.3210 C   0  0  0  0  0  0  0  0  0  0  0  0
   24.1170   11.4090   23.0550 N   0  0  0  0  0  0  0  0  0  0  0  0
   23.0280   10.4960   22.6620 C   0  0  3  0  0  0  0  0  0  0  0  0
   22.4130    9.7920   23.8660 C   0  0  3  0  0  0  0  0  0  0  0  0
   21.2550    9.0130   23.4260 O   0  0  0  0  0  0  0  0  0  0  0  0
   21.8760   10.8550   24.8220 C   0  0  0  0  0  0  0  0  0  0  0  0
   21.2430   10.2350   26.0150 N   0  3  0  0  0  0  0  0  0  0  0  0
   20.4380   11.0980   26.8920 C   0  0  0  0  0  0  0  0  0  0  0  0
   19.8070   10.1930   27.9800 C   0  0  0  0  0  0  0  0  0  0  0  0
   19.2720   11.5800   26.0320 C   0  0  0  0  0  0  0  0  0  0  0  0
   18.3540   10.6580   25.6630 O   0  0  0  0  0  0  0  0  0  0  0  0
   17.4380   11.3980   24.9220 C   0  0  0  0  0  0  0  0  0  0  0  0
   16.2170   10.7090   24.2540 C   0  0  0  0  0  0  0  0  0  0  0  0
   15.4770    9.8760   25.3260 C   0  0  0  0  0  0  0  0  0  0  0  0
   16.7810    9.7500   23.1970 C   0  0  0  0  0  0  0  0  0  0  0  0
   15.1350   11.5950   23.5400 C   0  0  0  0  0  0  0  0  0  0  0  0
   17.8560   12.7140   24.8110 C   0  0  0  0  0  0  0  0  0  0  0  0
   19.0030   12.8190   25.5550 N   0  0  0  0  0  0  0  0  0  0  0  0
   21.3160   12.2250   27.4450 C   0  0  0  0  0  0  0  0  0  0  0  0
   23.5910    9.5390   21.6050 C   0  0  0  0  0  0  0  0  0  0  0  0
   24.0740   10.2950   20.4590 O   0  0  0  0  0  0  0  0  0  0  0  0
   25.0610    9.5780   19.6570 C   0  0  0  0  0  0  0  0  0  0  0  0
   26.4240    9.6270   20.3640 C   0  0  0  0  0  0  0  0  0  0  0  0
   27.4750   10.2690   19.8690 C   0  0  0  0  0  0  0  0  0  0  0  0
   28.7960   10.2670   20.6320 C   0  0  0  0  0  0  0  0  0  0  0  0
   28.8620   11.3280   21.7210 C   0  0  0  0  0  0  0  0  0  0  0  0
   28.9610   12.6810   20.9950 C   0  0  0  0  0  0  0  0  0  0  0  0
   28.7880   13.8000   21.9820 C   0  0  0  0  0  0  0  0  0  0  0  0
   29.7020   14.6160   22.0370 O   0  0  0  0  0  0  0  0  0  0  0  0
   27.5070   14.0110   22.8130 C   0  0  0  0  0  0  0  0  0  0  0  0
   26.3370   13.2620   22.5670 C   0  0  0  0  0  0  0  0  0  0  0  0
   27.4850   15.0040   23.8110 C   0  0  0  0  0  0  0  0  0  0  0  0
   26.3540   15.2950   24.5490 C   0  0  0  0  0  0  0  0  0  0  0  0
   26.3800   16.3540   25.6090 C   0  0  0  0  0  0  0  0  0  0  0  0
   24.2730   14.7430   24.8790 H   0  0  0  0  0  0  0  0  0  0  0  0
   25.0180   11.0090   23.2740 H   0  0  0  0  0  0  0  0  0  0  0  0
   22.1960   11.0490   22.2270 H   0  0  0  0  0  0  0  0  0  0  0  0
   23.1630    9.1570   24.3370 H   0  0  0  0  0  0  0  0  0  0  0  0
   20.6320    9.6220   23.0220 H   0  0  0  0  0  0  0  0  0  0  0  0
   21.1350   11.4600   24.3000 H   0  0  0  0  0  0  0  0  0  0  0  0
   22.7000   11.4900   25.1470 H   0  0  0  0  0  0  0  0  0  0  0  0
   21.9830    9.8410   26.5780 H   0  0  0  0  0  0  0  0  0  0  0  0
   20.6400    9.4950   25.6850 H   0  0  0  0  0  0  0  0  0  0  0  0
   19.2010    9.4220   27.5040 H   0  0  0  0  0  0  0  0  0  0  0  0
   19.1780   10.7960   28.6350 H   0  0  0  0  0  0  0  0  0  0  0  0
   20.5980    9.7240   28.5660 H   0  0  0  0  0  0  0  0  0  0  0  0
   16.1920    9.2420   25.8510 H   0  0  0  0  0  0  0  0  0  0  0  0
   14.7230    9.2530   24.8450 H   0  0  0  0  0  0  0  0  0  0  0  0
   14.9950   10.5460   26.0380 H   0  0  0  0  0  0  0  0  0  0  0  0
   17.5400    9.1130   23.6520 H   0  0  0  0  0  0  0  0  0  0  0  0
   17.2280   10.3250   22.3860 H   0  0  0  0  0  0  0  0  0  0  0  0
   15.9760    9.1310   22.8020 H   0  0  0  0  0  0  0  0  0  0  0  0
   14.7060   12.2940   24.2580 H   0  0  0  0  0  0  0  0  0  0  0  0
   14.3480   10.9560   23.1410 H   0  0  0  0  0  0  0  0  0  0  0  0
   15.6000   12.1500   22.7250 H   0  0  0  0  0  0  0  0  0  0  0  0
   17.3740   13.5010   24.2500 H   0  0  0  0  0  0  0  0  0  0  0  0
   22.1200   11.7980   28.0440 H   0  0  0  0  0  0  0  0  0  0  0  0
   20.7110   12.8850   28.0660 H   0  0  0  0  0  0  0  0  0  0  0  0
   21.7410   12.7930   26.6180 H   0  0  0  0  0  0  0  0  0  0  0  0
   22.8060    8.8550   21.2820 H   0  0  0  0  0  0  0  0  0  0  0  0
   24.4150    8.9690   22.0350 H   0  0  0  0  0  0  0  0  0  0  0  0
   25.1430   10.0470   18.6760 H   0  0  0  0  0  0  0  0  0  0  0  0
   24.7490    8.5400   19.5390 H   0  0  0  0  0  0  0  0  0  0  0  0
   26.5320    9.1150   21.3090 H   0  0  0  0  0  0  0  0  0  0  0  0
   27.3950   10.7920   18.9270 H   0  0  0  0  0  0  0  0  0  0  0  0
   29.6050   10.4470   19.9240 H   0  0  0  0  0  0  0  0  0  0  0  0
   28.9280    9.2880   21.0940 H   0  0  0  0  0  0  0  0  0  0  0  0
   29.7390   11.1710   22.3490 H   0  0  0  0  0  0  0  0  0  0  0  0
   27.9630   11.2940   22.3370 H   0  0  0  0  0  0  0  0  0  0  0  0
   28.1810   12.7430   20.2370 H   0  0  0  0  0  0  0  0  0  0  0  0
   29.9380   12.7660   20.5190 H   0  0  0  0  0  0  0  0  0  0  0  0
   26.3070   12.5000   21.8020 H   0  0  0  0  0  0  0  0  0  0  0  0
   28.3890   15.5610   24.0080 H   0  0  0  0  0  0  0  0  0  0  0  0
   25.3960   16.4290   26.0710 H   0  0  0  0  0  0  0  0  0  0  0  0
   26.6450   17.3110   25.1600 H   0  0  0  0  0  0  0  0  0  0  0  0
   27.1180   16.0920   26.3670 H   0  0  0  0  0  0  0  0  0  0  0  0
  1  2  2  0  0  0  0
  2  3  1  0  0  0  0
  2  5  1  0  0  0  0
  3  4  1  0  0  0  0
  3 34  2  0  0  0  0
  4 36  2  0  0  0  0
  4 38  1  0  0  0  0
  5  6  1  0  0  0  0
  5 39  1  0  0  0  0
  6  7  1  0  0  0  0
  6 23  1  0  0  0  0
  6 40  1  0  0  0  0
  7  8  1  0  0  0  0
  7  9  1  0  0  0  0
  7 41  1  0  0  0  0
  8 42  1  0  0  0  0
  9 10  1  0  0  0  0
  9 43  1  0  0  0  0
  9 44  1  0  0  0  0
 10 11  1  0  0  0  0
 10 45  1  0  0  0  0
 10 46  1  0  0  0  0
 11 12  1  0  0  0  0
 11 13  1  0  0  0  0
 11 22  1  0  0  0  0
 12 47  1  0  0  0  0
 12 48  1  0  0  0  0
 12 49  1  0  0  0  0
 13 14  1  0  0  0  0
 13 21  2  0  0  0  0
 14 15  1  0  0  0  0
 15 16  1  0  0  0  0
 15 20  2  0  0  0  0
 16 17  1  0  0  0  0
 16 18  1  0  0  0  0
 16 19  1  0  0  0  0
 17 50  1  0  0  0  0
 17 51  1  0  0  0  0
 17 52  1  0  0  0  0
 18 53  1  0  0  0  0
 18 54  1  0  0  0  0
 18 55  1  0  0  0  0
 19 56  1  0  0  0  0
 19 57  1  0  0  0  0
 19 58  1  0  0  0  0
 20 21  1  0  0  0  0
 20 59  1  0  0  0  0
 22 60  1  0  0  0  0
 22 61  1  0  0  0  0
 22 62  1  0  0  0  0
 23 24  1  0  0  0  0
 23 63  1  0  0  0  0
 23 64  1  0  0  0  0
 24 25  1  0  0  0  0
 25 26  1  0  0  0  0
 25 65  1  0  0  0  0
 25 66  1  0  0  0  0
 26 27  2  0  0  0  0
 26 67  1  0  0  0  0
 27 28  1  0  0  0  0
 27 68  1  0  0  0  0
 28 29  1  0  0  0  0
 28 69  1  0  0  0  0
 28 70  1  0  0  0  0
 29 30  1  0  0  0  0
 29 71  1  0  0  0  0
 29 72  1  0  0  0  0
 30 31  1  0  0  0  0
 30 73  1  0  0  0  0
 30 74  1  0  0  0  0
 31 32  2  0  0  0  0
 31 33  1  0  0  0  0
 33 34  1  0  0  0  0
 33 35  2  0  0  0  0
 34 75  1  0  0  0  0
 35 36  1  0  0  0  0
 35 76  1  0  0  0  0
 36 37  1  0  0  0  0
 37 77  1  0  0  0  0
 37 78  1  0  0  0  0
 37 79  1  0  0  0  0
M  CHG  1  10   1
M  END
>  <PARENT_CMPD_ID>
4GMI

>  <JOURNAL>
To be Published

>  <Resolution>
1.8

>  <idx>
216

>  <Model>
Test

>  <des_pred_mlr>
7.1886401

>  <RF_Canvas>
7.2836585

>  <DNN_Canvas>
7.1375785

>  <pred_CoMFA>
7.0932002

>  <pred_COMSIA>
6.9502001

>  <pred_abm5>
7.4287915

>  <pred_ff8>
6.9894724

>  <pred_gau6>
6.9283142

>  <CID>
BACE_216

>  <RF_canvas>
1

>  <DNN_canvas>
1

$$$$
4L7H_5802
  MOE2015           3D

 41 44  0  0  1  0  0  0  0  0999 V2000
   18.5980   12.2680   24.3180 C   0  0  0  0  0  0  0  0  0  0  0  0
   17.7580   14.3610   24.8950 C   0  0  0  0  0  0  0  0  0  0  0  0
   19.4400   10.6130   22.7370 C   0  0  0  0  0  0  0  0  0  0  0  0
   21.8800   10.7180   22.1230 C   0  0  3  0  0  0  0  0  0  0  0  0
   22.8010   11.0040   20.9470 C   0  0  0  0  0  0  0  0  0  0  0  0
   24.4960   11.4570   18.7810 C   0  0  0  0  0  0  0  0  0  0  0  0
   23.5460   12.4000   19.1230 C   0  0  0  0  0  0  0  0  0  0  0  0
   22.7000   12.1770   20.1980 C   0  0  0  0  0  0  0  0  0  0  0  0
   16.5840   13.8180   25.3780 C   0  0  0  0  0  0  0  0  0  0  0  0
   16.4120   12.4470   25.3370 C   0  0  0  0  0  0  0  0  0  0  0  0
   17.4230   11.6340   24.8080 C   0  0  0  0  0  0  0  0  0  0  0  0
   18.7020   13.5900   24.3950 N   0  0  0  0  0  0  0  0  0  0  0  0
   19.7010   11.6050   23.7780 N   0  0  0  0  0  0  0  0  0  0  0  0
   20.4580   10.7000   21.5770 C   0  0  0  0  0  0  0  0  0  0  0  0
   22.0260   11.8040   23.2580 C   0  0  3  0  0  0  0  0  0  0  0  0
   20.7360   12.5840   23.3720 C   0  0  0  0  0  0  0  0  0  0  0  0
   22.4180   11.0570   24.4030 O   0  0  0  0  0  0  0  0  0  0  0  0
   22.5800    9.7500   24.0430 C   0  0  0  0  0  0  0  0  0  0  0  0
   22.3080    9.4980   22.7850 N   0  0  0  0  0  0  0  0  0  0  0  0
   22.9950    8.7850   24.9290 N   0  0  0  0  0  0  0  0  0  0  0  0
   23.7510   10.0630   20.5930 C   0  0  0  0  0  0  0  0  0  0  0  0
   24.5980   10.2880   19.5190 C   0  0  0  0  0  0  0  0  0  0  0  0
   21.7910   13.1330   20.4920 F   0  0  0  0  0  0  0  0  0  0  0  0
   25.3220   11.6820   17.7310 F   0  0  0  0  0  0  0  0  0  0  0  0
   17.1860   10.2150   24.7950 C   0  0  0  0  0  0  0  0  0  0  0  0
   16.9850    9.0950   24.7840 N   0  0  0  0  0  0  0  0  0  0  0  0
   17.9040   15.4310   24.9270 H   0  0  0  0  0  0  0  0  0  0  0  0
   18.4390   10.7780   22.3380 H   0  0  0  0  0  0  0  0  0  0  0  0
   19.4960    9.6180   23.1790 H   0  0  0  0  0  0  0  0  0  0  0  0
   23.4620   13.3130   18.5520 H   0  0  0  0  0  0  0  0  0  0  0  0
   15.8110   14.4550   25.7820 H   0  0  0  0  0  0  0  0  0  0  0  0
   15.5010   12.0040   25.7120 H   0  0  0  0  0  0  0  0  0  0  0  0
   20.2790   11.6130   21.0090 H   0  0  0  0  0  0  0  0  0  0  0  0
   20.3340    9.8360   20.9240 H   0  0  0  0  0  0  0  0  0  0  0  0
   22.7710   12.5790   23.0790 H   0  0  0  0  0  0  0  0  0  0  0  0
   20.8320   13.3670   24.1240 H   0  0  0  0  0  0  0  0  0  0  0  0
   20.4780   13.0320   22.4120 H   0  0  0  0  0  0  0  0  0  0  0  0
   23.1030    7.8290   24.6210 H   0  0  0  0  0  0  0  0  0  0  0  0
   23.1920    9.0310   25.8880 H   0  0  0  0  0  0  0  0  0  0  0  0
   23.8330    9.1460   21.1580 H   0  0  0  0  0  0  0  0  0  0  0  0
   25.3410    9.5490   19.2560 H   0  0  0  0  0  0  0  0  0  0  0  0
  1 11  2  0  0  0  0
  1 12  1  0  0  0  0
  1 13  1  0  0  0  0
  2  9  1  0  0  0  0
  2 12  2  0  0  0  0
  2 27  1  0  0  0  0
  3 13  1  0  0  0  0
  3 14  1  0  0  0  0
  3 28  1  0  0  0  0
  3 29  1  0  0  0  0
  4  5  1  0  0  0  0
  4 14  1  0  0  0  0
  4 15  1  0  0  0  0
  4 19  1  0  0  0  0
  5  8  2  0  0  0  0
  5 21  1  0  0  0  0
  6  7  2  0  0  0  0
  6 22  1  0  0  0  0
  6 24  1  0  0  0  0
  7  8  1  0  0  0  0
  7 30  1  0  0  0  0
  8 23  1  0  0  0  0
  9 10  2  0  0  0  0
  9 31  1  0  0  0  0
 10 11  1  0  0  0  0
 10 32  1  0  0  0  0
 11 25  1  0  0  0  0
 13 16  1  0  0  0  0
 14 33  1  0  0  0  0
 14 34  1  0  0  0  0
 15 16  1  0  0  0  0
 15 17  1  0  0  0  0
 15 35  1  0  0  0  0
 16 36  1  0  0  0  0
 16 37  1  0  0  0  0
 17 18  1  0  0  0  0
 18 19  2  0  0  0  0
 18 20  1  0  0  0  0
 20 38  1  0  0  0  0
 20 39  1  0  0  0  0
 21 22  2  0  0  0  0
 21 40  1  0  0  0  0
 22 41  1  0  0  0  0
 25 26  3  0  0  0  0
M  END
>  <PARENT_CMPD_ID>
4L7H

>  <JOURNAL>
Tetrahedron Lett.

>  <YEAR>
2013

>  <VOLUME>
54

>  <FIRST_PAGE>
5802

>  <Company>
Genentech

>  <Resolution>
1.85

>  <idx>
217

>  <Model>
Test

>  <des_pred_mlr>
6.36443

>  <RF_Canvas>
6.7187672

>  <DNN_Canvas>
6.4160018

>  <pred_CoMFA>
4.52

>  <pred_COMSIA>
5.5805001

>  <pred_abm5>
4.7048244

>  <pred_ff8>
4.9451509

>  <pred_gau6>
5.4654293

>  <CID>
BACE_217

>  <RF_canvas>
1

>  <DNN_canvas>
1

$$$$
4B0Q_
  MOE2015           3D

 46 48  0  0  1  0  0  0  0  0999 V2000
   22.8360   11.1960   24.3370 N   0  0  0  0  0  0  0  0  0  0  0  0
   29.0860    8.4920   22.8020 O   0  0  0  0  0  0  0  0  0  0  0  0
   22.5090    9.6160   22.5870 N   0  3  0  0  0  0  0  0  0  0  0  0
   22.2530   10.5520   21.5160 C   0  0  3  0  0  0  0  0  0  0  0  0
   22.7070    8.8720   24.6640 N   0  0  0  0  0  0  0  0  0  0  0  0
   22.6840    9.9920   23.8860 C   0  0  0  0  0  0  0  0  0  0  0  0
   18.2980   10.0860   19.8820 N   0  0  0  0  0  0  0  0  0  0  0  0
   20.8740   10.3620   20.9390 C   0  0  0  0  0  0  0  0  0  0  0  0
   20.0070   11.4390   20.8830 C   0  0  0  0  0  0  0  0  0  0  0  0
   18.7430   11.2560   20.3540 C   0  0  0  0  0  0  0  0  0  0  0  0
   19.1650    9.0660   19.9370 C   0  0  0  0  0  0  0  0  0  0  0  0
   20.4440    9.1420   20.4530 C   0  0  0  0  0  0  0  0  0  0  0  0
   23.3900   10.6780   20.5400 C   0  0  0  0  0  0  0  0  0  0  0  0
   23.1340   11.0980   19.2510 C   0  0  0  0  0  0  0  0  0  0  0  0
   24.1690   11.2410   18.3480 C   0  0  0  0  0  0  0  0  0  0  0  0
   25.4760   11.0080   18.7360 C   0  0  0  0  0  0  0  0  0  0  0  0
   25.7710   10.6340   20.0360 C   0  0  0  0  0  0  0  0  0  0  0  0
   24.7120   10.4680   20.9210 C   0  0  0  0  0  0  0  0  0  0  0  0
   28.8310    9.5070   21.8900 C   0  0  0  0  0  0  0  0  0  0  0  0
   27.1560   10.4970   20.4740 C   0  0  0  0  0  0  0  0  0  0  0  0
   28.1170   11.4210   20.0980 C   0  0  0  0  0  0  0  0  0  0  0  0
   29.4190   11.3890   20.5550 C   0  0  0  0  0  0  0  0  0  0  0  0
   30.0760    8.8510   23.7630 C   0  0  0  0  0  0  0  0  0  0  0  0
   29.7770   10.4290   21.4850 C   0  0  0  0  0  0  0  0  0  0  0  0
   27.5510    9.5340   21.3750 C   0  0  0  0  0  0  0  0  0  0  0  0
   22.8320   11.9790   23.6990 H   0  0  0  0  0  0  0  0  0  0  0  0
   22.9580   11.3530   25.3270 H   0  0  0  0  0  0  0  0  0  0  0  0
   22.5610    8.6330   22.3620 H   0  0  0  0  0  0  0  0  0  0  0  0
   22.2270   11.5560   21.9390 H   0  0  0  0  0  0  0  0  0  0  0  0
   22.6020    7.9610   24.2410 H   0  0  0  0  0  0  0  0  0  0  0  0
   22.8290    8.9540   25.6630 H   0  0  0  0  0  0  0  0  0  0  0  0
   20.3130   12.4080   21.2470 H   0  0  0  0  0  0  0  0  0  0  0  0
   18.0770   12.1060   20.3200 H   0  0  0  0  0  0  0  0  0  0  0  0
   18.8390    8.1120   19.5490 H   0  0  0  0  0  0  0  0  0  0  0  0
   21.0880    8.2750   20.4760 H   0  0  0  0  0  0  0  0  0  0  0  0
   22.1210   11.3160   18.9470 H   0  0  0  0  0  0  0  0  0  0  0  0
   23.9560   11.5370   17.3310 H   0  0  0  0  0  0  0  0  0  0  0  0
   26.2750   11.1190   18.0170 H   0  0  0  0  0  0  0  0  0  0  0  0
   24.9220   10.1660   21.9370 H   0  0  0  0  0  0  0  0  0  0  0  0
   27.8330   12.2060   19.4130 H   0  0  0  0  0  0  0  0  0  0  0  0
   30.1460   12.1010   20.1930 H   0  0  0  0  0  0  0  0  0  0  0  0
   30.2340    8.0190   24.4500 H   0  0  0  0  0  0  0  0  0  0  0  0
   29.7400    9.7250   24.3220 H   0  0  0  0  0  0  0  0  0  0  0  0
   31.0110    9.0830   23.2520 H   0  0  0  0  0  0  0  0  0  0  0  0
   30.7790   10.4010   21.8870 H   0  0  0  0  0  0  0  0  0  0  0  0
   26.8420    8.7810   21.6860 H   0  0  0  0  0  0  0  0  0  0  0  0
  1  6  1  0  0  0  0
  1 26  1  0  0  0  0
  1 27  1  0  0  0  0
  2 19  1  0  0  0  0
  2 23  1  0  0  0  0
  3  4  1  0  0  0  0
  3  6  2  0  0  0  0
  3 28  1  0  0  0  0
  4  8  1  0  0  0  0
  4 13  1  0  0  0  0
  4 29  1  0  0  0  0
  5  6  1  0  0  0  0
  5 30  1  0  0  0  0
  5 31  1  0  0  0  0
  7 10  2  0  0  0  0
  7 11  1  0  0  0  0
  8  9  2  0  0  0  0
  8 12  1  0  0  0  0
  9 10  1  0  0  0  0
  9 32  1  0  0  0  0
 10 33  1  0  0  0  0
 11 12  2  0  0  0  0
 11 34  1  0  0  0  0
 12 35  1  0  0  0  0
 13 14  1  0  0  0  0
 13 18  2  0  0  0  0
 14 15  2  0  0  0  0
 14 36  1  0  0  0  0
 15 16  1  0  0  0  0
 15 37  1  0  0  0  0
 16 17  2  0  0  0  0
 16 38  1  0  0  0  0
 17 18  1  0  0  0  0
 17 20  1  0  0  0  0
 18 39  1  0  0  0  0
 19 24  2  0  0  0  0
 19 25  1  0  0  0  0
 20 21  1  0  0  0  0
 20 25  2  0  0  0  0
 21 22  2  0  0  0  0
 21 40  1  0  0  0  0
 22 24  1  0  0  0  0
 22 41  1  0  0  0  0
 23 42  1  0  0  0  0
 23 43  1  0  0  0  0
 23 44  1  0  0  0  0
 24 45  1  0  0  0  0
 25 46  1  0  0  0  0
M  CHG  1   3   1
M  END
>  <PARENT_CMPD_ID>
4B0Q

>  <JOURNAL>
To be Published

>  <Resolution>
1.87

>  <idx>
218

>  <Model>
Test

>  <des_pred_mlr>
5.9724498

>  <RF_Canvas>
5.0710511

>  <DNN_Canvas>
5.2349482

>  <pred_CoMFA>
6.3213

>  <pred_COMSIA>
7.3848

>  <pred_abm5>
6.553668

>  <pred_ff8>
5.06215

>  <pred_gau6>
6.5791278

>  <CID>
BACE_218

>  <RF_canvas>
0

>  <DNN_canvas>
0

$$$$
4I0J_
  MOE2015           3D

 70 73  0  0  1  0  0  0  0  0999 V2000
   25.4400   13.6560   23.4550 C   0  0  0  0  0  0  0  0  0  0  0  0
   24.1840   12.9430   23.0130 C   0  0  0  0  0  0  0  0  0  0  0  0
   24.1780   11.5930   23.1560 N   0  0  0  0  0  0  0  0  0  0  0  0
   23.0510   10.7080   22.8260 C   0  0  3  0  0  0  0  0  0  0  0  0
   22.4880   10.0340   24.0890 C   0  0  3  0  0  0  0  0  0  0  0  0
   22.0350   11.1330   25.0390 C   0  0  0  0  0  0  0  0  0  0  0  0
   21.2290   10.6000   26.1620 N   0  3  0  0  0  0  0  0  0  0  0  0
   20.4460   11.4750   27.0580 C   0  0  0  0  0  0  0  0  0  0  0  0
   19.7850   10.6740   28.2160 C   0  0  0  0  0  0  0  0  0  0  0  0
   19.1100   11.5250   29.3000 C   0  0  0  0  0  0  0  0  0  0  0  0
   20.0710   12.5430   29.9310 C   0  0  0  0  0  0  0  0  0  0  0  0
   20.9450   13.2860   28.9130 C   0  0  0  0  0  0  0  0  0  0  0  0
   21.4040   12.4950   27.6760 C   0  0  0  0  0  0  0  0  0  0  0  0
   19.3660   12.0820   26.1710 C   0  0  3  0  0  0  0  0  0  0  0  0
   18.4380   11.2040   25.5600 C   0  0  0  0  0  0  0  0  0  0  0  0
   17.3850   11.6030   24.7250 C   0  0  0  0  0  0  0  0  0  0  0  0
   17.2810   13.0040   24.5310 C   0  0  0  0  0  0  0  0  0  0  0  0
   18.1730   13.9250   25.1220 C   0  0  0  0  0  0  0  0  0  0  0  0
   19.2210   13.4650   25.9310 C   0  0  0  0  0  0  0  0  0  0  0  0
   16.5450   10.6850   24.2320 N   0  0  0  0  0  0  0  0  0  0  0  0
   16.0280    9.6720   25.0710 N   0  0  0  0  0  0  0  0  0  0  0  0
   15.2010    8.9420   24.2940 C   0  0  0  0  0  0  0  0  0  0  0  0
   15.2670    9.4680   22.9980 C   0  0  0  0  0  0  0  0  0  0  0  0
   16.1280   10.5760   22.9760 C   0  0  0  0  0  0  0  0  0  0  0  0
   23.2200   13.5450   22.5690 O   0  0  0  0  0  0  0  0  0  0  0  0
   23.4340    9.7050   21.7170 C   0  0  0  0  0  0  0  0  0  0  0  0
   24.0370   10.5030   20.5660 C   0  0  0  0  0  0  0  0  0  0  0  0
   25.4100   10.4070   20.2970 C   0  0  0  0  0  0  0  0  0  0  0  0
   26.0190   11.1580   19.2660 C   0  0  0  0  0  0  0  0  0  0  0  0
   25.2510   12.0360   18.4970 C   0  0  0  0  0  0  0  0  0  0  0  0
   23.8840   12.1380   18.7990 C   0  0  0  0  0  0  0  0  0  0  0  0
   23.2620   11.4040   19.8310 C   0  0  0  0  0  0  0  0  0  0  0  0
   27.3310   11.0040   19.0320 F   0  0  0  0  0  0  0  0  0  0  0  0
   23.1310   13.0010   18.1250 F   0  0  0  0  0  0  0  0  0  0  0  0
   21.3370    9.2170   23.7390 O   0  0  0  0  0  0  0  0  0  0  0  0
   26.1650   12.9260   23.8140 H   0  0  0  0  0  0  0  0  0  0  0  0
   25.1990   14.3530   24.2570 H   0  0  0  0  0  0  0  0  0  0  0  0
   25.8630   14.2030   22.6130 H   0  0  0  0  0  0  0  0  0  0  0  0
   25.0160   11.1610   23.5190 H   0  0  0  0  0  0  0  0  0  0  0  0
   22.2420   11.3140   22.4180 H   0  0  0  0  0  0  0  0  0  0  0  0
   23.2490    9.4040   24.5490 H   0  0  0  0  0  0  0  0  0  0  0  0
   21.4320   11.8520   24.4840 H   0  0  0  0  0  0  0  0  0  0  0  0
   22.9150   11.6330   25.4440 H   0  0  0  0  0  0  0  0  0  0  0  0
   21.8720   10.0940   26.7540 H   0  0  0  0  0  0  0  0  0  0  0  0
   20.5690    9.9540   25.7530 H   0  0  0  0  0  0  0  0  0  0  0  0
   20.5580   10.0720   28.6930 H   0  0  0  0  0  0  0  0  0  0  0  0
   19.0290   10.0180   27.7830 H   0  0  0  0  0  0  0  0  0  0  0  0
   18.7380   10.8640   30.0830 H   0  0  0  0  0  0  0  0  0  0  0  0
   18.2750   12.0640   28.8520 H   0  0  0  0  0  0  0  0  0  0  0  0
   20.7250   12.0140   30.6240 H   0  0  0  0  0  0  0  0  0  0  0  0
   19.4810   13.2780   30.4780 H   0  0  0  0  0  0  0  0  0  0  0  0
   21.8390   13.6280   29.4350 H   0  0  0  0  0  0  0  0  0  0  0  0
   20.3780   14.1480   28.5600 H   0  0  0  0  0  0  0  0  0  0  0  0
   21.6420   13.2230   26.9000 H   0  0  0  0  0  0  0  0  0  0  0  0
   22.3080   11.9560   27.9580 H   0  0  0  0  0  0  0  0  0  0  0  0
   18.7090   12.1680   27.0360 H   0  0  0  0  0  0  0  0  0  0  0  0
   18.5500   10.1470   25.7520 H   0  0  0  0  0  0  0  0  0  0  0  0
   16.2860   13.2830   24.8770 H   0  0  0  0  0  0  0  0  0  0  0  0
   17.3500   13.1650   23.4550 H   0  0  0  0  0  0  0  0  0  0  0  0
   18.0480   14.9840   24.9510 H   0  0  0  0  0  0  0  0  0  0  0  0
   19.9150   14.1670   26.3690 H   0  0  0  0  0  0  0  0  0  0  0  0
   14.5980    8.1050   24.6130 H   0  0  0  0  0  0  0  0  0  0  0  0
   14.7350    9.0790   22.1430 H   0  0  0  0  0  0  0  0  0  0  0  0
   16.3910   11.1970   22.1320 H   0  0  0  0  0  0  0  0  0  0  0  0
   22.5470    9.1710   21.3750 H   0  0  0  0  0  0  0  0  0  0  0  0
   24.1640    8.9910   22.0970 H   0  0  0  0  0  0  0  0  0  0  0  0
   26.0180    9.7420   20.8930 H   0  0  0  0  0  0  0  0  0  0  0  0
   25.6930   12.6150   17.7000 H   0  0  0  0  0  0  0  0  0  0  0  0
   22.2120   11.5350   20.0480 H   0  0  0  0  0  0  0  0  0  0  0  0
   20.6830    9.7940   23.3370 H   0  0  0  0  0  0  0  0  0  0  0  0
  1  2  1  0  0  0  0
  1 36  1  0  0  0  0
  1 37  1  0  0  0  0
  1 38  1  0  0  0  0
  2  3  1  0  0  0  0
  2 25  2  0  0  0  0
  3  4  1  0  0  0  0
  3 39  1  0  0  0  0
  4  5  1  0  0  0  0
  4 26  1  0  0  0  0
  4 40  1  0  0  0  0
  5  6  1  0  0  0  0
  5 35  1  0  0  0  0
  5 41  1  0  0  0  0
  6  7  1  0  0  0  0
  6 42  1  0  0  0  0
  6 43  1  0  0  0  0
  7  8  1  0  0  0  0
  7 44  1  0  0  0  0
  7 45  1  0  0  0  0
  8  9  1  0  0  0  0
  8 13  1  0  0  0  0
  8 14  1  0  0  0  0
  9 10  1  0  0  0  0
  9 46  1  0  0  0  0
  9 47  1  0  0  0  0
 10 11  1  0  0  0  0
 10 48  1  0  0  0  0
 10 49  1  0  0  0  0
 11 12  1  0  0  0  0
 11 50  1  0  0  0  0
 11 51  1  0  0  0  0
 12 13  1  0  0  0  0
 12 52  1  0  0  0  0
 12 53  1  0  0  0  0
 13 54  1  0  0  0  0
 13 55  1  0  0  0  0
 14 15  1  0  0  0  0
 14 19  1  0  0  0  0
 14 56  1  0  0  0  0
 15 16  2  0  0  0  0
 15 57  1  0  0  0  0
 16 17  1  0  0  0  0
 16 20  1  0  0  0  0
 17 18  1  0  0  0  0
 17 58  1  0  0  0  0
 17 59  1  0  0  0  0
 18 19  2  0  0  0  0
 18 60  1  0  0  0  0
 19 61  1  0  0  0  0
 20 21  1  0  0  0  0
 20 24  1  0  0  0  0
 21 22  2  0  0  0  0
 22 23  1  0  0  0  0
 22 62  1  0  0  0  0
 23 24  2  0  0  0  0
 23 63  1  0  0  0  0
 24 64  1  0  0  0  0
 26 27  1  0  0  0  0
 26 65  1  0  0  0  0
 26 66  1  0  0  0  0
 27 28  1  0  0  0  0
 27 32  2  0  0  0  0
 28 29  2  0  0  0  0
 28 67  1  0  0  0  0
 29 30  1  0  0  0  0
 29 33  1  0  0  0  0
 30 31  2  0  0  0  0
 30 68  1  0  0  0  0
 31 32  1  0  0  0  0
 31 34  1  0  0  0  0
 32 69  1  0  0  0  0
 35 70  1  0  0  0  0
M  CHG  1   7   1
M  END
>  <PARENT_CMPD_ID>
4I0J

>  <JOURNAL>
To be Published

>  <Resolution>
1.99

>  <idx>
219

>  <Model>
Test

>  <des_pred_mlr>
6.6325798

>  <RF_Canvas>
6.9715948

>  <DNN_Canvas>
7.3904862

>  <pred_CoMFA>
7.1142001

>  <pred_COMSIA>
7.4403

>  <pred_abm5>
7.2427454

>  <pred_ff8>
6.8245163

>  <pred_gau6>
7.2108216

>  <CID>
BACE_219

>  <RF_canvas>
1

>  <DNN_canvas>
1

$$$$
2ZJL_4488
  MOE2015           3D

 52 53  0  0  0  0  0  0  0  0999 V2000
   28.2820   11.2370   18.4710 C   0  0  0  0  0  0  0  0  0  0  0  0
   23.7900   12.1500   18.2130 C   0  0  0  0  0  0  0  0  0  0  0  0
   24.8990   10.8290   19.9420 C   0  0  0  0  0  0  0  0  0  0  0  0
   26.2130   10.5400   19.6000 C   0  0  0  0  0  0  0  0  0  0  0  0
   26.7910    9.3440   20.0290 C   0  0  0  0  0  0  0  0  0  0  0  0
   24.3390   12.0130   19.5220 O   0  0  0  0  0  0  0  0  0  0  0  0
   24.7430    8.7330   21.1350 C   0  0  0  0  0  0  0  0  0  0  0  0
   22.5380   12.7910   29.3210 C   0  0  0  0  0  0  0  0  0  0  0  0
   21.0570   13.0500   29.0790 C   0  0  0  0  0  0  0  0  0  0  0  0
   20.3690   11.7870   28.5700 C   0  0  0  0  0  0  0  0  0  0  0  0
   20.3320   11.7780   27.0600 C   0  0  0  0  0  0  0  0  0  0  0  0
   21.0650   10.4840   22.7300 C   0  0  0  0  0  0  0  0  0  0  0  0
   20.7820   10.2990   24.2200 C   0  0  0  0  0  0  0  0  0  0  0  0
   21.6070   11.2940   25.0290 C   0  0  0  0  0  0  0  0  0  0  0  0
   23.3250   11.2400   23.2100 C   0  0  0  0  0  0  0  0  0  0  0  0
   23.0840   11.0730   24.7110 C   0  0  0  0  0  0  0  0  0  0  0  0
   26.8590    6.8200   21.3630 Br  0  0  0  0  0  0  0  0  0  0  0  0
   26.0590    8.4390   20.7940 C   0  0  0  0  0  0  0  0  0  0  0  0
   26.9190   11.4440   18.8400 O   0  0  0  0  0  0  0  0  0  0  0  0
   24.1620    9.9320   20.7120 C   0  0  0  0  0  0  0  0  0  0  0  0
   22.7290   10.2550   21.0880 C   0  0  0  0  0  0  0  0  0  0  0  0
   22.4930   10.2430   22.5270 N   0  3  0  0  0  0  0  0  0  0  0  0
   21.3470   11.1560   26.4500 N   0  0  0  0  0  0  0  0  0  0  0  0
   19.4040   12.3160   26.4680 O   0  0  0  0  0  0  0  0  0  0  0  0
   23.2810   14.1920   30.1900 S   0  5  0  0  0  0  0  0  0  0  0  0
   28.6290   12.0800   17.8730 H   0  0  0  0  0  0  0  0  0  0  0  0
   28.3650   10.3200   17.8880 H   0  0  0  0  0  0  0  0  0  0  0  0
   28.8930   11.1530   19.3700 H   0  0  0  0  0  0  0  0  0  0  0  0
   23.4010   13.1600   18.0860 H   0  0  0  0  0  0  0  0  0  0  0  0
   22.9820   11.4300   18.0810 H   0  0  0  0  0  0  0  0  0  0  0  0
   24.5670   11.9640   17.4720 H   0  0  0  0  0  0  0  0  0  0  0  0
   27.8140    9.1190   19.7660 H   0  0  0  0  0  0  0  0  0  0  0  0
   24.1700    8.0350   21.7270 H   0  0  0  0  0  0  0  0  0  0  0  0
   23.0410   12.6530   28.3640 H   0  0  0  0  0  0  0  0  0  0  0  0
   22.6520   11.8910   29.9250 H   0  0  0  0  0  0  0  0  0  0  0  0
   20.9480   13.8410   28.3370 H   0  0  0  0  0  0  0  0  0  0  0  0
   20.5900   13.3610   30.0140 H   0  0  0  0  0  0  0  0  0  0  0  0
   19.3490   11.7540   28.9540 H   0  0  0  0  0  0  0  0  0  0  0  0
   20.9180   10.9130   28.9210 H   0  0  0  0  0  0  0  0  0  0  0  0
   20.8110   11.4990   22.4250 H   0  0  0  0  0  0  0  0  0  0  0  0
   20.4800    9.7720   22.1480 H   0  0  0  0  0  0  0  0  0  0  0  0
   21.0470    9.2840   24.5160 H   0  0  0  0  0  0  0  0  0  0  0  0
   19.7220   10.4680   24.4110 H   0  0  0  0  0  0  0  0  0  0  0  0
   21.3250   12.3110   24.7550 H   0  0  0  0  0  0  0  0  0  0  0  0
   24.3770   11.0710   22.9790 H   0  0  0  0  0  0  0  0  0  0  0  0
   23.0400   12.2440   22.8950 H   0  0  0  0  0  0  0  0  0  0  0  0
   23.3720   10.0660   25.0130 H   0  0  0  0  0  0  0  0  0  0  0  0
   23.6840   11.8020   25.2560 H   0  0  0  0  0  0  0  0  0  0  0  0
   22.0750    9.5170   20.6240 H   0  0  0  0  0  0  0  0  0  0  0  0
   22.4860   11.2470   20.7060 H   0  0  0  0  0  0  0  0  0  0  0  0
   22.7520    9.3520   22.9270 H   0  0  0  0  0  0  0  0  0  0  0  0
   21.9560   10.5670   27.0000 H   0  0  0  0  0  0  0  0  0  0  0  0
  1 19  1  0  0  0  0
  1 26  1  0  0  0  0
  1 27  1  0  0  0  0
  1 28  1  0  0  0  0
  2  6  1  0  0  0  0
  2 29  1  0  0  0  0
  2 30  1  0  0  0  0
  2 31  1  0  0  0  0
  3  4  1  0  0  0  0
  3  6  1  0  0  0  0
  3 20  2  0  0  0  0
  4  5  2  0  0  0  0
  4 19  1  0  0  0  0
  5 18  1  0  0  0  0
  5 32  1  0  0  0  0
  7 18  2  0  0  0  0
  7 20  1  0  0  0  0
  7 33  1  0  0  0  0
  8  9  1  0  0  0  0
  8 25  1  0  0  0  0
  8 34  1  0  0  0  0
  8 35  1  0  0  0  0
  9 10  1  0  0  0  0
  9 36  1  0  0  0  0
  9 37  1  0  0  0  0
 10 11  1  0  0  0  0
 10 38  1  0  0  0  0
 10 39  1  0  0  0  0
 11 23  1  0  0  0  0
 11 24  2  0  0  0  0
 12 13  1  0  0  0  0
 12 22  1  0  0  0  0
 12 40  1  0  0  0  0
 12 41  1  0  0  0  0
 13 14  1  0  0  0  0
 13 42  1  0  0  0  0
 13 43  1  0  0  0  0
 14 16  1  0  0  0  0
 14 23  1  0  0  0  0
 14 44  1  0  0  0  0
 15 16  1  0  0  0  0
 15 22  1  0  0  0  0
 15 45  1  0  0  0  0
 15 46  1  0  0  0  0
 16 47  1  0  0  0  0
 16 48  1  0  0  0  0
 17 18  1  0  0  0  0
 20 21  1  0  0  0  0
 21 22  1  0  0  0  0
 21 49  1  0  0  0  0
 21 50  1  0  0  0  0
 22 51  1  0  0  0  0
 23 52  1  0  0  0  0
M  CHG  1  22   1
M  CHG  1  25  -1
M  END
>  <PARENT_CMPD_ID>
2ZJL

>  <STANDARD_TYPE>
IC50

>  <RELATION>
=

>  <COMPOUND_KEY>
10

>  <PUBMED_ID>
19284778

>  <JOURNAL>
Biochemistry

>  <YEAR>
2009

>  <VOLUME>
48

>  <FIRST_PAGE>
4488

>  <Company>
Sunesis

>  <Resolution>
2.0999999

>  <idx>
220

>  <Model>
Test

>  <des_pred_mlr>
6.20366

>  <RF_Canvas>
4.802392

>  <DNN_Canvas>
3.9548268

>  <pred_CoMFA>
3.2952001

>  <pred_COMSIA>
4.3922

>  <pred_abm5>
3.7246099

>  <pred_ff8>
5.3661885

>  <pred_gau6>
3.9021099

>  <CID>
BACE_220

>  <RF_canvas>
0

>  <DNN_canvas>
0

$$$$
3ZOV_1124
  MOE2015           3D

 51 53  0  0  1  0  0  0  0  0999 V2000
   34.3200    7.2920   24.5570 F   0  0  0  0  0  0  0  0  0  0  0  0
   34.4300    8.5830   24.3390 C   0  0  0  0  0  0  0  0  0  0  0  0
   35.6340    8.9120   23.9340 F   0  0  0  0  0  0  0  0  0  0  0  0
   34.1590    9.2790   25.4260 F   0  0  0  0  0  0  0  0  0  0  0  0
   33.4410    8.8850   23.2460 C   0  0  0  0  0  0  0  0  0  0  0  0
   32.1450    8.8490   23.8200 O   0  0  0  0  0  0  0  0  0  0  0  0
   31.1350    9.2770   23.0070 C   0  0  0  0  0  0  0  0  0  0  0  0
   29.8530    8.7810   23.1910 C   0  0  0  0  0  0  0  0  0  0  0  0
   28.8760    9.2050   22.3780 N   0  0  0  0  0  0  0  0  0  0  0  0
   31.4020   10.2090   21.9830 C   0  0  0  0  0  0  0  0  0  0  0  0
   30.3650   10.6260   21.1530 C   0  0  0  0  0  0  0  0  0  0  0  0
   29.0940   10.0960   21.3780 C   0  0  0  0  0  0  0  0  0  0  0  0
   27.9590   10.5180   20.5150 C   0  0  0  0  0  0  0  0  0  0  0  0
   28.2440   11.0560   19.4560 O   0  0  0  0  0  0  0  0  0  0  0  0
   26.7260   10.2500   20.9750 N   0  0  0  0  0  0  0  0  0  0  0  0
   25.4660   10.5200   20.4220 C   0  0  0  0  0  0  0  0  0  0  0  0
   24.3330   10.2670   21.2060 C   0  0  0  0  0  0  0  0  0  0  0  0
   25.3300   11.0640   19.1420 C   0  0  0  0  0  0  0  0  0  0  0  0
   24.0580   11.3260   18.6480 C   0  0  0  0  0  0  0  0  0  0  0  0
   22.9340   11.0540   19.4270 C   0  0  0  0  0  0  0  0  0  0  0  0
   23.0500   10.5230   20.7160 C   0  0  0  0  0  0  0  0  0  0  0  0
   21.7930   10.2590   21.5210 C   0  0  3  0  0  0  0  0  0  0  0  0
   21.2070   11.5910   21.9120 C   0  0  0  0  0  0  0  0  0  0  0  0
   21.9930   12.1390   23.0700 C   0  0  0  0  0  0  0  0  0  0  0  0
   22.0790   13.3380   23.1410 O   0  0  0  0  0  0  0  0  0  0  0  0
   20.7560    9.5240   20.6990 C   0  0  0  0  0  0  0  0  0  0  0  0
   22.0270    9.5040   22.7490 N   0  0  0  0  0  0  0  0  0  0  0  0
   22.5210   10.0040   23.7940 C   0  0  0  0  0  0  0  0  0  0  0  0
   23.0050    9.1700   24.7270 N   0  0  0  0  0  0  0  0  0  0  0  0
   22.6120   11.3370   23.9540 N   0  0  0  0  0  0  0  0  0  0  0  0
   23.4160   11.9360   25.0250 C   0  0  0  0  0  0  0  0  0  0  0  0
   33.5190    8.1370   22.4570 H   0  0  0  0  0  0  0  0  0  0  0  0
   33.6360    9.8740   22.8300 H   0  0  0  0  0  0  0  0  0  0  0  0
   29.6460    8.0670   23.9740 H   0  0  0  0  0  0  0  0  0  0  0  0
   32.4010   10.5950   21.8440 H   0  0  0  0  0  0  0  0  0  0  0  0
   30.5390   11.3380   20.3600 H   0  0  0  0  0  0  0  0  0  0  0  0
   26.7020    9.7760   21.8660 H   0  0  0  0  0  0  0  0  0  0  0  0
   24.4530    9.8690   22.2030 H   0  0  0  0  0  0  0  0  0  0  0  0
   26.2030   11.2780   18.5440 H   0  0  0  0  0  0  0  0  0  0  0  0
   23.9400   11.7410   17.6580 H   0  0  0  0  0  0  0  0  0  0  0  0
   21.9520   11.2580   19.0260 H   0  0  0  0  0  0  0  0  0  0  0  0
   20.1650   11.4620   22.2040 H   0  0  0  0  0  0  0  0  0  0  0  0
   21.2660   12.2800   21.0690 H   0  0  0  0  0  0  0  0  0  0  0  0
   20.5680   10.0730   19.7770 H   0  0  0  0  0  0  0  0  0  0  0  0
   19.8310    9.4430   21.2690 H   0  0  0  0  0  0  0  0  0  0  0  0
   21.1230    8.5260   20.4590 H   0  0  0  0  0  0  0  0  0  0  0  0
   22.9670    8.1710   24.5800 H   0  0  0  0  0  0  0  0  0  0  0  0
   23.4070    9.5410   25.5760 H   0  0  0  0  0  0  0  0  0  0  0  0
   23.3470   13.0220   24.9670 H   0  0  0  0  0  0  0  0  0  0  0  0
   24.4570   11.6320   24.9120 H   0  0  0  0  0  0  0  0  0  0  0  0
   23.0420   11.5990   25.9920 H   0  0  0  0  0  0  0  0  0  0  0  0
  1  2  1  0  0  0  0
  2  3  1  0  0  0  0
  2  4  1  0  0  0  0
  2  5  1  0  0  0  0
  5  6  1  0  0  0  0
  5 32  1  0  0  0  0
  5 33  1  0  0  0  0
  6  7  1  0  0  0  0
  7  8  2  0  0  0  0
  7 10  1  0  0  0  0
  8  9  1  0  0  0  0
  8 34  1  0  0  0  0
  9 12  2  0  0  0  0
 10 11  2  0  0  0  0
 10 35  1  0  0  0  0
 11 12  1  0  0  0  0
 11 36  1  0  0  0  0
 12 13  1  0  0  0  0
 13 14  2  0  0  0  0
 13 15  1  0  0  0  0
 15 16  1  0  0  0  0
 15 37  1  0  0  0  0
 16 17  1  0  0  0  0
 16 18  2  0  0  0  0
 17 21  2  0  0  0  0
 17 38  1  0  0  0  0
 18 19  1  0  0  0  0
 18 39  1  0  0  0  0
 19 20  2  0  0  0  0
 19 40  1  0  0  0  0
 20 21  1  0  0  0  0
 20 41  1  0  0  0  0
 21 22  1  0  0  0  0
 22 23  1  0  0  0  0
 22 26  1  0  0  0  0
 22 27  1  0  0  0  0
 23 24  1  0  0  0  0
 23 42  1  0  0  0  0
 23 43  1  0  0  0  0
 24 25  2  0  0  0  0
 24 30  1  0  0  0  0
 26 44  1  0  0  0  0
 26 45  1  0  0  0  0
 26 46  1  0  0  0  0
 27 28  2  0  0  0  0
 28 29  1  0  0  0  0
 28 30  1  0  0  0  0
 29 47  1  0  0  0  0
 29 48  1  0  0  0  0
 30 31  1  0  0  0  0
 31 49  1  0  0  0  0
 31 50  1  0  0  0  0
 31 51  1  0  0  0  0
M  END
>  <PARENT_CMPD_ID>
3ZOV

>  <PUBMED_ID>
23695257

>  <JOURNAL>
Acta Crystallogr.,Sect.D

>  <YEAR>
2013

>  <VOLUME>
69

>  <FIRST_PAGE>
1124

>  <Company>
Roche

>  <Resolution>
2.0999999

>  <idx>
221

>  <Model>
Test

>  <des_pred_mlr>
6.3600898

>  <RF_Canvas>
6.7654123

>  <DNN_Canvas>
7.1537828

>  <pred_CoMFA>
7.2497001

>  <pred_COMSIA>
6.9906001

>  <pred_abm5>
7.3082771

>  <pred_ff8>
7.0025558

>  <pred_gau6>
7.5360699

>  <CID>
BACE_221

>  <RF_canvas>
0

>  <DNN_canvas>
1

$$$$
4I0H_
  MOE2015           3D

 82 84  0  0  1  0  0  0  0  0999 V2000
   25.3780   10.2240   20.4360 C   0  0  0  0  0  0  0  0  0  0  0  0
   24.0090   10.4210   20.6690 C   0  0  0  0  0  0  0  0  0  0  0  0
   24.0440   12.1770   18.9980 C   0  0  0  0  0  0  0  0  0  0  0  0
   23.3380   11.4050   19.9410 C   0  0  0  0  0  0  0  0  0  0  0  0
   22.8570   10.6370   22.8420 C   0  0  3  0  0  0  0  0  0  0  0  0
   22.3170    9.9770   24.1270 C   0  0  3  0  0  0  0  0  0  0  0  0
   21.7690   10.9700   25.1020 C   0  0  0  0  0  0  0  0  0  0  0  0
   23.2950    9.6280   21.7630 C   0  0  0  0  0  0  0  0  0  0  0  0
   26.0580   10.9990   19.4930 C   0  0  0  0  0  0  0  0  0  0  0  0
   25.4050   11.9780   18.7590 C   0  0  0  0  0  0  0  0  0  0  0  0
   23.0620   13.4340   22.8860 O   0  0  0  0  0  0  0  0  0  0  0  0
   24.0420   12.7710   23.2040 C   0  0  0  0  0  0  0  0  0  0  0  0
   25.3070   13.5020   23.6070 C   0  0  0  0  0  0  0  0  0  0  0  0
   26.3020   13.5560   22.4160 C   0  0  0  0  0  0  0  0  0  0  0  0
   27.5330   14.4600   22.6240 C   0  0  3  0  0  0  0  0  0  0  0  0
   27.1180   15.7330   23.1440 O   0  0  0  0  0  0  0  0  0  0  0  0
   28.4060   13.8330   23.6820 C   0  0  0  0  0  0  0  0  0  0  0  0
   29.2140   12.9630   23.3820 O   0  0  0  0  0  0  0  0  0  0  0  0
   28.2610   14.1720   24.8550 O   0  5  0  0  0  0  0  0  0  0  0  0
   24.0350   11.4330   23.2070 N   0  0  0  0  0  0  0  0  0  0  0  0
   23.4390   13.0970   18.2650 F   0  0  0  0  0  0  0  0  0  0  0  0
   27.3410   10.8260   19.2640 F   0  0  0  0  0  0  0  0  0  0  0  0
   21.1410    9.2960   23.7530 O   0  0  0  0  0  0  0  0  0  0  0  0
   21.0580   10.3480   26.2100 N   0  3  0  0  0  0  0  0  0  0  0  0
   20.2590   11.2480   27.1050 C   0  0  0  0  0  0  0  0  0  0  0  0
   21.2530   12.3170   27.6740 C   0  0  0  0  0  0  0  0  0  0  0  0
   20.7940   13.1600   28.8660 C   0  0  0  0  0  0  0  0  0  0  0  0
   20.1280   12.3570   29.9520 C   0  0  0  0  0  0  0  0  0  0  0  0
   18.9680   11.4890   29.3620 C   0  0  0  0  0  0  0  0  0  0  0  0
   19.5300   10.5230   28.2700 C   0  0  0  0  0  0  0  0  0  0  0  0
   19.1280   11.8260   26.2710 C   0  0  0  0  0  0  0  0  0  0  0  0
   18.1770   10.9550   25.7030 C   0  0  0  0  0  0  0  0  0  0  0  0
   17.1090   11.4290   24.9390 C   0  0  0  0  0  0  0  0  0  0  0  0
   16.0630   10.5150   24.3210 C   0  0  0  0  0  0  0  0  0  0  0  0
   16.7100    9.8190   23.1290 C   0  0  0  0  0  0  0  0  0  0  0  0
   15.5340    9.3940   25.1970 C   0  0  0  0  0  0  0  0  0  0  0  0
   14.8120   11.3570   23.9880 C   0  0  0  0  0  0  0  0  0  0  0  0
   16.9960   12.7940   24.7070 C   0  0  0  0  0  0  0  0  0  0  0  0
   17.9130   13.6980   25.2700 C   0  0  0  0  0  0  0  0  0  0  0  0
   18.9760   13.2150   26.0460 C   0  0  0  0  0  0  0  0  0  0  0  0
   25.9110    9.4660   20.9910 H   0  0  0  0  0  0  0  0  0  0  0  0
   22.2830   11.5730   20.1000 H   0  0  0  0  0  0  0  0  0  0  0  0
   22.0460   11.2320   22.4220 H   0  0  0  0  0  0  0  0  0  0  0  0
   23.1320    9.3940   24.5550 H   0  0  0  0  0  0  0  0  0  0  0  0
   21.0810   11.6310   24.5750 H   0  0  0  0  0  0  0  0  0  0  0  0
   22.5960   11.5540   25.5050 H   0  0  0  0  0  0  0  0  0  0  0  0
   23.9730    8.8910   22.1940 H   0  0  0  0  0  0  0  0  0  0  0  0
   22.4230    9.1210   21.3490 H   0  0  0  0  0  0  0  0  0  0  0  0
   25.9330   12.5680   18.0250 H   0  0  0  0  0  0  0  0  0  0  0  0
   25.7740   12.9790   24.4420 H   0  0  0  0  0  0  0  0  0  0  0  0
   25.0540   14.5180   23.9100 H   0  0  0  0  0  0  0  0  0  0  0  0
   25.7610   13.9200   21.5420 H   0  0  0  0  0  0  0  0  0  0  0  0
   26.6570   12.5430   22.2280 H   0  0  0  0  0  0  0  0  0  0  0  0
   28.0540   14.5790   21.6740 H   0  0  0  0  0  0  0  0  0  0  0  0
   26.6670   15.5740   23.9770 H   0  0  0  0  0  0  0  0  0  0  0  0
   24.8800   10.9480   23.4730 H   0  0  0  0  0  0  0  0  0  0  0  0
   20.5300    9.9460   23.3980 H   0  0  0  0  0  0  0  0  0  0  0  0
   21.7430    9.8780   26.7850 H   0  0  0  0  0  0  0  0  0  0  0  0
   20.4230    9.6670   25.8190 H   0  0  0  0  0  0  0  0  0  0  0  0
   21.4890   13.0050   26.8620 H   0  0  0  0  0  0  0  0  0  0  0  0
   22.1570   11.7900   27.9780 H   0  0  0  0  0  0  0  0  0  0  0  0
   20.0870   13.9080   28.5070 H   0  0  0  0  0  0  0  0  0  0  0  0
   21.6650   13.6590   29.2910 H   0  0  0  0  0  0  0  0  0  0  0  0
   19.7220   13.0360   30.7020 H   0  0  0  0  0  0  0  0  0  0  0  0
   20.8650   11.7020   30.4160 H   0  0  0  0  0  0  0  0  0  0  0  0
   18.2190   12.1420   28.9160 H   0  0  0  0  0  0  0  0  0  0  0  0
   18.5110   10.9050   30.1610 H   0  0  0  0  0  0  0  0  0  0  0  0
   20.2350    9.8410   28.7450 H   0  0  0  0  0  0  0  0  0  0  0  0
   18.6990    9.9540   27.8540 H   0  0  0  0  0  0  0  0  0  0  0  0
   18.2770    9.8920   25.8630 H   0  0  0  0  0  0  0  0  0  0  0  0
   17.5790    9.2540   23.4660 H   0  0  0  0  0  0  0  0  0  0  0  0
   17.0220   10.5650   22.3980 H   0  0  0  0  0  0  0  0  0  0  0  0
   15.9910    9.1400   22.6700 H   0  0  0  0  0  0  0  0  0  0  0  0
   16.3560    8.7390   25.4850 H   0  0  0  0  0  0  0  0  0  0  0  0
   14.7900    8.8210   24.6440 H   0  0  0  0  0  0  0  0  0  0  0  0
   15.0760    9.8170   26.0910 H   0  0  0  0  0  0  0  0  0  0  0  0
   15.0970   12.1960   23.3540 H   0  0  0  0  0  0  0  0  0  0  0  0
   14.3710   11.7330   24.9110 H   0  0  0  0  0  0  0  0  0  0  0  0
   14.0850   10.7360   23.4640 H   0  0  0  0  0  0  0  0  0  0  0  0
   16.1940   13.1650   24.0860 H   0  0  0  0  0  0  0  0  0  0  0  0
   17.7990   14.7590   25.1060 H   0  0  0  0  0  0  0  0  0  0  0  0
   19.6840   13.9080   26.4750 H   0  0  0  0  0  0  0  0  0  0  0  0
  1  2  1  0  0  0  0
  1  9  2  0  0  0  0
  1 41  1  0  0  0  0
  2  4  2  0  0  0  0
  2  8  1  0  0  0  0
  3  4  1  0  0  0  0
  3 10  2  0  0  0  0
  3 21  1  0  0  0  0
  4 42  1  0  0  0  0
  5  6  1  0  0  0  0
  5  8  1  0  0  0  0
  5 20  1  0  0  0  0
  5 43  1  0  0  0  0
  6  7  1  0  0  0  0
  6 23  1  0  0  0  0
  6 44  1  0  0  0  0
  7 24  1  0  0  0  0
  7 45  1  0  0  0  0
  7 46  1  0  0  0  0
  8 47  1  0  0  0  0
  8 48  1  0  0  0  0
  9 10  1  0  0  0  0
  9 22  1  0  0  0  0
 10 49  1  0  0  0  0
 11 12  2  0  0  0  0
 12 13  1  0  0  0  0
 12 20  1  0  0  0  0
 13 14  1  0  0  0  0
 13 50  1  0  0  0  0
 13 51  1  0  0  0  0
 14 15  1  0  0  0  0
 14 52  1  0  0  0  0
 14 53  1  0  0  0  0
 15 16  1  0  0  0  0
 15 17  1  0  0  0  0
 15 54  1  0  0  0  0
 16 55  1  0  0  0  0
 17 18  2  0  0  0  0
 17 19  1  0  0  0  0
 20 56  1  0  0  0  0
 23 57  1  0  0  0  0
 24 25  1  0  0  0  0
 24 58  1  0  0  0  0
 24 59  1  0  0  0  0
 25 26  1  0  0  0  0
 25 30  1  0  0  0  0
 25 31  1  0  0  0  0
 26 27  1  0  0  0  0
 26 60  1  0  0  0  0
 26 61  1  0  0  0  0
 27 28  1  0  0  0  0
 27 62  1  0  0  0  0
 27 63  1  0  0  0  0
 28 29  1  0  0  0  0
 28 64  1  0  0  0  0
 28 65  1  0  0  0  0
 29 30  1  0  0  0  0
 29 66  1  0  0  0  0
 29 67  1  0  0  0  0
 30 68  1  0  0  0  0
 30 69  1  0  0  0  0
 31 32  1  0  0  0  0
 31 40  2  0  0  0  0
 32 33  2  0  0  0  0
 32 70  1  0  0  0  0
 33 34  1  0  0  0  0
 33 38  1  0  0  0  0
 34 35  1  0  0  0  0
 34 36  1  0  0  0  0
 34 37  1  0  0  0  0
 35 71  1  0  0  0  0
 35 72  1  0  0  0  0
 35 73  1  0  0  0  0
 36 74  1  0  0  0  0
 36 75  1  0  0  0  0
 36 76  1  0  0  0  0
 37 77  1  0  0  0  0
 37 78  1  0  0  0  0
 37 79  1  0  0  0  0
 38 39  2  0  0  0  0
 38 80  1  0  0  0  0
 39 40  1  0  0  0  0
 39 81  1  0  0  0  0
 40 82  1  0  0  0  0
M  CHG  1  19  -1
M  CHG  1  24   1
M  END
>  <PARENT_CMPD_ID>
4I0H

>  <JOURNAL>
To be Published

>  <Resolution>
2.2

>  <idx>
222

>  <Model>
Test

>  <des_pred_mlr>
6.9847102

>  <RF_Canvas>
7.3665514

>  <DNN_Canvas>
7.3933535

>  <pred_CoMFA>
8.2189999

>  <pred_COMSIA>
7.8899002

>  <pred_abm5>
7.9675493

>  <pred_ff8>
8.1254873

>  <pred_gau6>
8.1971569

>  <CID>
BACE_222

>  <RF_canvas>
1

>  <DNN_canvas>
1

$$$$
3UQW_
  MOE2015           3D

 86 89  0  0  1  0  0  0  0  0999 V2000
   14.3500    9.8870   22.9450 C   0  0  0  0  0  0  0  0  0  0  0  0
   13.3290    9.5410   22.7880 H   0  0  0  0  0  0  0  0  0  0  0  0
   15.0000    9.4600   22.1810 H   0  0  0  0  0  0  0  0  0  0  0  0
   14.3790   10.9750   22.8800 H   0  0  0  0  0  0  0  0  0  0  0  0
   28.8690   10.1050   20.0600 C   0  0  0  0  0  0  0  0  0  0  0  0
   29.6540    9.5660   19.5310 H   0  0  0  0  0  0  0  0  0  0  0  0
   28.2810   10.6820   19.3470 H   0  0  0  0  0  0  0  0  0  0  0  0
   28.2220    9.3940   20.5730 H   0  0  0  0  0  0  0  0  0  0  0  0
   25.8250   17.2900   25.8680 C   0  0  0  0  0  0  0  0  0  0  0  0
   24.9510   17.1190   25.2390 H   0  0  0  0  0  0  0  0  0  0  0  0
   26.2500   18.2680   25.6400 H   0  0  0  0  0  0  0  0  0  0  0  0
   25.5300   17.2570   26.9170 H   0  0  0  0  0  0  0  0  0  0  0  0
   29.4780   17.4820   25.6280 C   0  0  0  0  0  0  0  0  0  0  0  0
   29.7430   17.0690   24.6550 H   0  0  0  0  0  0  0  0  0  0  0  0
   30.3830   17.6350   26.2160 H   0  0  0  0  0  0  0  0  0  0  0  0
   28.9680   18.4350   25.4910 H   0  0  0  0  0  0  0  0  0  0  0  0
   29.4580   13.8550   21.6550 O   0  0  0  0  0  0  0  0  0  0  0  0
   22.6970   13.7780   23.5490 O   0  0  0  0  0  0  0  0  0  0  0  0
   15.5450   12.1350   24.8050 O   0  0  0  0  0  0  0  0  0  0  0  0
   29.0090   14.9590   26.6830 O   0  0  0  0  0  0  0  0  0  0  0  0
   28.0090   16.9240   27.8790 O   0  0  0  0  0  0  0  0  0  0  0  0
   22.8030    9.1810   24.7000 O   0  0  0  0  0  0  0  0  0  0  0  0
   22.4210    8.6360   25.3920 H   0  0  0  0  0  0  0  0  0  0  0  0
   33.2470    8.2090   24.2840 F   0  0  0  0  0  0  0  0  0  0  0  0
   25.0420   11.9160   18.5970 C   0  0  0  0  0  0  0  0  0  0  0  0
   25.6630   12.3330   17.8180 H   0  0  0  0  0  0  0  0  0  0  0  0
   25.2350   10.5820   19.0540 C   0  0  0  0  0  0  0  0  0  0  0  0
   26.0140    9.9770   18.6130 H   0  0  0  0  0  0  0  0  0  0  0  0
   24.0090   12.6820   19.1960 C   0  0  0  0  0  0  0  0  0  0  0  0
   23.8300   13.6950   18.8670 H   0  0  0  0  0  0  0  0  0  0  0  0
   24.4190   10.0320   20.0820 C   0  0  0  0  0  0  0  0  0  0  0  0
   24.6080    9.0280   20.4320 H   0  0  0  0  0  0  0  0  0  0  0  0
   23.2140   12.1240   20.2200 C   0  0  0  0  0  0  0  0  0  0  0  0
   22.4640   12.7420   20.6920 H   0  0  0  0  0  0  0  0  0  0  0  0
   30.8410    8.5460   23.6670 C   0  0  0  0  0  0  0  0  0  0  0  0
   30.5060    7.7710   24.3400 H   0  0  0  0  0  0  0  0  0  0  0  0
   32.7320    9.8580   22.6770 C   0  0  0  0  0  0  0  0  0  0  0  0
   33.7870   10.0770   22.6020 H   0  0  0  0  0  0  0  0  0  0  0  0
   29.9180    9.2770   22.8700 C   0  0  0  0  0  0  0  0  0  0  0  0
   28.8620    9.0600   22.9410 H   0  0  0  0  0  0  0  0  0  0  0  0
   31.7740   10.5490   21.9020 C   0  0  0  0  0  0  0  0  0  0  0  0
   32.1230   11.3080   21.2180 H   0  0  0  0  0  0  0  0  0  0  0  0
   18.2260   12.8610   24.9450 C   0  0  0  0  0  0  0  0  0  0  0  0
   17.6430   13.7630   24.8320 H   0  0  0  0  0  0  0  0  0  0  0  0
   26.1220   13.1220   22.8390 C   0  0  0  0  0  0  0  0  0  0  0  0
   25.9270   12.3330   22.1280 H   0  0  0  0  0  0  0  0  0  0  0  0
   27.7190   14.6840   23.8290 C   0  0  0  0  0  0  0  0  0  0  0  0
   28.7180   15.0830   23.9230 H   0  0  0  0  0  0  0  0  0  0  0  0
   25.3200   14.6340   24.5600 C   0  0  0  0  0  0  0  0  0  0  0  0
   24.5340   15.0080   25.1990 H   0  0  0  0  0  0  0  0  0  0  0  0
   18.8030   10.7060   25.1170 C   0  0  0  0  0  0  0  0  0  0  0  0
   18.7260    9.6290   25.1420 H   0  0  0  0  0  0  0  0  0  0  0  0
   14.8380    9.4390   24.3490 C   0  0  0  0  0  0  0  0  0  0  0  0
   14.7840    8.3510   24.3910 H   0  0  0  0  0  0  0  0  0  0  0  0
   14.1630    9.8660   25.0910 H   0  0  0  0  0  0  0  0  0  0  0  0
   22.5250   10.1850   21.7070 C   0  0  0  0  0  0  0  0  0  0  0  0
   22.9640    9.2200   21.9620 H   0  0  0  0  0  0  0  0  0  0  0  0
   21.5320   10.0320   21.2840 H   0  0  0  0  0  0  0  0  0  0  0  0
   21.3100   10.9290   25.4360 C   0  0  0  0  0  0  0  0  0  0  0  0
   21.9830   11.7790   25.5490 H   0  0  0  0  0  0  0  0  0  0  0  0
   21.3330   10.3250   26.3430 H   0  0  0  0  0  0  0  0  0  0  0  0
   19.5800   12.7730   25.0930 N   0  0  0  0  0  0  0  0  0  0  0  0
   28.4830   11.8220   21.8460 N   0  0  0  0  0  0  0  0  0  0  0  0
   27.6890   11.3060   22.1970 H   0  0  0  0  0  0  0  0  0  0  0  0
   23.6030   11.6800   23.4310 N   0  0  0  0  0  0  0  0  0  0  0  0
   24.4270   11.1160   23.5850 H   0  0  0  0  0  0  0  0  0  0  0  0
   16.2090    9.8380   24.7030 O   0  0  0  0  0  0  0  0  0  0  0  0
   28.5230   13.1410   22.0850 C   0  0  0  0  0  0  0  0  0  0  0  0
   23.7060   13.0470   23.5570 C   0  0  0  0  0  0  0  0  0  0  0  0
   16.4540   11.2450   24.8210 C   0  0  0  0  0  0  0  0  0  0  0  0
   32.2470    8.8760   23.5460 C   0  0  0  0  0  0  0  0  0  0  0  0
   23.3640   10.7820   20.6510 C   0  0  0  0  0  0  0  0  0  0  0  0
   17.7600   11.5910   24.9680 C   0  0  0  0  0  0  0  0  0  0  0  0
   27.4510   13.6460   22.9140 C   0  0  0  0  0  0  0  0  0  0  0  0
   25.0350   13.5810   23.6510 C   0  0  0  0  0  0  0  0  0  0  0  0
   30.3730   10.3000   21.9730 C   0  0  0  0  0  0  0  0  0  0  0  0
   26.6370   15.2140   24.6470 C   0  0  0  0  0  0  0  0  0  0  0  0
   29.5150   11.0720   21.1070 C   0  0  3  0  0  0  0  0  0  0  0  0
   30.1200   11.8250   20.6020 H   0  0  0  0  0  0  0  0  0  0  0  0
   21.7870   10.0600   24.2350 C   0  0  3  0  0  0  0  0  0  0  0  0
   20.9610    9.4770   23.8280 H   0  0  0  0  0  0  0  0  0  0  0  0
   22.3380   11.0030   23.0800 C   0  0  3  0  0  0  0  0  0  0  0  0
   21.5840   11.7780   22.9460 H   0  0  0  0  0  0  0  0  0  0  0  0
   26.8430   16.2310   25.6040 N   0  0  0  0  0  0  0  0  0  0  0  0
   19.9420   11.4260   25.2260 N   0  0  0  0  0  0  0  0  0  0  0  0
   28.3570   16.3030   26.5150 S   0  0  0  0  0  0  0  0  0  0  0  0
  1  2  1  0  0  0  0
  1  3  1  0  0  0  0
  1  4  1  0  0  0  0
  1 53  1  0  0  0  0
  5  6  1  0  0  0  0
  5  7  1  0  0  0  0
  5  8  1  0  0  0  0
  5 78  1  0  0  0  0
  9 10  1  0  0  0  0
  9 11  1  0  0  0  0
  9 12  1  0  0  0  0
  9 84  1  0  0  0  0
 13 14  1  0  0  0  0
 13 15  1  0  0  0  0
 13 16  1  0  0  0  0
 13 86  1  0  0  0  0
 17 68  2  0  0  0  0
 18 69  2  0  0  0  0
 19 70  2  0  0  0  0
 20 86  2  0  0  0  0
 21 86  2  0  0  0  0
 22 23  1  0  0  0  0
 22 80  1  0  0  0  0
 24 71  1  0  0  0  0
 25 26  1  0  0  0  0
 25 27  2  0  0  0  0
 25 29  1  0  0  0  0
 27 28  1  0  0  0  0
 27 31  1  0  0  0  0
 29 30  1  0  0  0  0
 29 33  2  0  0  0  0
 31 32  1  0  0  0  0
 31 72  2  0  0  0  0
 33 34  1  0  0  0  0
 33 72  1  0  0  0  0
 35 36  1  0  0  0  0
 35 39  1  0  0  0  0
 35 71  2  0  0  0  0
 37 38  1  0  0  0  0
 37 41  2  0  0  0  0
 37 71  1  0  0  0  0
 39 40  1  0  0  0  0
 39 76  2  0  0  0  0
 41 42  1  0  0  0  0
 41 76  1  0  0  0  0
 43 44  1  0  0  0  0
 43 62  2  0  0  0  0
 43 73  1  0  0  0  0
 45 46  1  0  0  0  0
 45 74  2  0  0  0  0
 45 75  1  0  0  0  0
 47 48  1  0  0  0  0
 47 74  1  0  0  0  0
 47 77  2  0  0  0  0
 49 50  1  0  0  0  0
 49 75  2  0  0  0  0
 49 77  1  0  0  0  0
 51 52  1  0  0  0  0
 51 73  2  0  0  0  0
 51 85  1  0  0  0  0
 53 54  1  0  0  0  0
 53 55  1  0  0  0  0
 53 67  1  0  0  0  0
 56 57  1  0  0  0  0
 56 58  1  0  0  0  0
 56 72  1  0  0  0  0
 56 82  1  0  0  0  0
 59 60  1  0  0  0  0
 59 61  1  0  0  0  0
 59 80  1  0  0  0  0
 59 85  1  0  0  0  0
 62 85  1  0  0  0  0
 63 64  1  0  0  0  0
 63 68  1  0  0  0  0
 63 78  1  0  0  0  0
 65 66  1  0  0  0  0
 65 69  1  0  0  0  0
 65 82  1  0  0  0  0
 67 70  1  0  0  0  0
 68 74  1  0  0  0  0
 69 75  1  0  0  0  0
 70 73  1  0  0  0  0
 76 78  1  0  0  0  0
 77 84  1  0  0  0  0
 78 79  1  0  0  0  0
 80 81  1  0  0  0  0
 80 82  1  0  0  0  0
 82 83  1  0  0  0  0
 84 86  1  0  0  0  0
M  END
>  <PARENT_CMPD_ID>
3UQW

>  <JOURNAL>
To be Published

>  <Resolution>
2.2

>  <idx>
223

>  <Model>
Test

>  <des_pred_mlr>
8.5400496

>  <RF_Canvas>
7.5078516

>  <DNN_Canvas>
6.9893746

>  <pred_CoMFA>
7.7681999

>  <pred_COMSIA>
7.973

>  <pred_abm5>
8.2320538

>  <pred_ff8>
7.7256241

>  <pred_gau6>
8.6223192

>  <CID>
BACE_223

>  <RF_canvas>
1

>  <DNN_canvas>
1

$$$$
2ZJJ_4488
  MOE2015           3D

 41 42  0  0  1  0  0  0  0  0999 V2000
   23.3990   12.5040   23.3250 C   0  0  0  0  0  0  0  0  0  0  0  0
   29.9470   11.3180   21.6050 C   0  0  0  0  0  0  0  0  0  0  0  0
   28.9030   11.7880   20.8060 C   0  0  0  0  0  0  0  0  0  0  0  0
   29.8340   10.0800   22.2410 C   0  0  0  0  0  0  0  0  0  0  0  0
   28.6840    9.3080   22.0800 C   0  0  0  0  0  0  0  0  0  0  0  0
   27.6450    9.7780   21.2780 C   0  0  0  0  0  0  0  0  0  0  0  0
   27.7500   11.0190   20.6430 C   0  0  0  0  0  0  0  0  0  0  0  0
   26.6220   11.5370   19.7730 C   0  0  0  0  0  0  0  0  0  0  0  0
   25.0130   12.2260   21.4410 C   0  0  0  0  0  0  0  0  0  0  0  0
   23.7630   11.6700   22.1300 C   0  0  3  0  0  0  0  0  0  0  0  0
   24.2890   11.3060   19.3360 C   0  0  0  0  0  0  0  0  0  0  0  0
   23.0300   10.7770   20.0200 C   0  0  0  0  0  0  0  0  0  0  0  0
   22.4860   13.3130   23.2560 O   0  0  0  0  0  0  0  0  0  0  0  0
   24.1150   12.3050   24.4330 N   0  0  0  0  0  0  0  0  0  0  0  0
   23.9080   13.0710   25.6500 C   0  0  0  0  0  0  0  0  0  0  0  0
   24.7370   14.3520   25.6710 C   0  0  0  0  0  0  0  0  0  0  0  0
   26.4080   13.9740   26.2570 S   0  5  0  0  0  0  0  0  0  0  0  0
   22.6620   11.5690   21.1810 N   0  3  0  0  0  0  0  0  0  0  0  0
   25.3170   11.2720   20.3730 N   0  3  3  0  0  0  0  0  0  0  0  0
   30.8390    9.6230   23.0090 F   0  0  0  0  0  0  0  0  0  0  0  0
   30.8410   11.9110   21.7310 H   0  0  0  0  0  0  0  0  0  0  0  0
   28.9880   12.7460   20.3140 H   0  0  0  0  0  0  0  0  0  0  0  0
   28.5990    8.3510   22.5740 H   0  0  0  0  0  0  0  0  0  0  0  0
   26.7550    9.1810   21.1470 H   0  0  0  0  0  0  0  0  0  0  0  0
   26.6710   11.0460   18.8010 H   0  0  0  0  0  0  0  0  0  0  0  0
   26.7400   12.6130   19.6430 H   0  0  0  0  0  0  0  0  0  0  0  0
   25.8420   12.2890   22.1460 H   0  0  0  0  0  0  0  0  0  0  0  0
   24.8140   13.2140   21.0260 H   0  0  0  0  0  0  0  0  0  0  0  0
   23.9780   10.6650   22.4920 H   0  0  0  0  0  0  0  0  0  0  0  0
   24.1340   12.3250   18.9810 H   0  0  0  0  0  0  0  0  0  0  0  0
   24.5680   10.6680   18.4970 H   0  0  0  0  0  0  0  0  0  0  0  0
   23.2090    9.7500   20.3380 H   0  0  0  0  0  0  0  0  0  0  0  0
   22.2070   10.7980   19.3060 H   0  0  0  0  0  0  0  0  0  0  0  0
   24.8310   11.5920   24.4250 H   0  0  0  0  0  0  0  0  0  0  0  0
   24.1900   12.4560   26.5050 H   0  0  0  0  0  0  0  0  0  0  0  0
   22.8530   13.3340   25.7240 H   0  0  0  0  0  0  0  0  0  0  0  0
   24.2720   15.0760   26.3400 H   0  0  0  0  0  0  0  0  0  0  0  0
   24.7890   14.7680   24.6650 H   0  0  0  0  0  0  0  0  0  0  0  0
   22.4050   12.4970   20.8770 H   0  0  0  0  0  0  0  0  0  0  0  0
   21.8740   11.1340   21.6380 H   0  0  0  0  0  0  0  0  0  0  0  0
   25.3360   10.3540   20.7930 H   0  0  0  0  0  0  0  0  0  0  0  0
  1 10  1  0  0  0  0
  1 13  2  0  0  0  0
  1 14  1  0  0  0  0
  2  3  1  0  0  0  0
  2  4  2  0  0  0  0
  2 21  1  0  0  0  0
  3  7  2  0  0  0  0
  3 22  1  0  0  0  0
  4  5  1  0  0  0  0
  4 20  1  0  0  0  0
  5  6  2  0  0  0  0
  5 23  1  0  0  0  0
  6  7  1  0  0  0  0
  6 24  1  0  0  0  0
  7  8  1  0  0  0  0
  8 19  1  0  0  0  0
  8 25  1  0  0  0  0
  8 26  1  0  0  0  0
  9 10  1  0  0  0  0
  9 19  1  0  0  0  0
  9 27  1  0  0  0  0
  9 28  1  0  0  0  0
 10 18  1  0  0  0  0
 10 29  1  0  0  0  0
 11 12  1  0  0  0  0
 11 19  1  0  0  0  0
 11 30  1  0  0  0  0
 11 31  1  0  0  0  0
 12 18  1  0  0  0  0
 12 32  1  0  0  0  0
 12 33  1  0  0  0  0
 14 15  1  0  0  0  0
 14 34  1  0  0  0  0
 15 16  1  0  0  0  0
 15 35  1  0  0  0  0
 15 36  1  0  0  0  0
 16 17  1  0  0  0  0
 16 37  1  0  0  0  0
 16 38  1  0  0  0  0
 18 39  1  0  0  0  0
 18 40  1  0  0  0  0
 19 41  1  0  0  0  0
M  CHG  1  17  -1
M  CHG  1  18   1
M  CHG  1  19   1
M  END
>  <PARENT_CMPD_ID>
2ZJJ

>  <STANDARD_TYPE>
IC50

>  <RELATION>
=

>  <COMPOUND_KEY>
4

>  <PUBMED_ID>
19284778

>  <JOURNAL>
Biochemistry

>  <YEAR>
2009

>  <VOLUME>
48

>  <FIRST_PAGE>
4488

>  <Company>
Sunesis

>  <Resolution>
2.2

>  <idx>
224

>  <Model>
Test

>  <des_pred_mlr>
5.2220502

>  <RF_Canvas>
3.869782

>  <DNN_Canvas>
4.0351553

>  <pred_CoMFA>
5.0063

>  <pred_COMSIA>
5.3463998

>  <pred_abm5>
5.1892462

>  <pred_ff8>
3.7456918

>  <pred_gau6>
5.4590788

>  <CID>
BACE_224

>  <RF_canvas>
0

>  <DNN_canvas>
0

$$$$
3QI1_
  MOE2015           3D

 75 78  0  0  1  0  0  0  0  0999 V2000
   23.1430   11.2950   19.8950 C   0  0  0  0  0  0  0  0  0  0  0  0
   22.1060   11.4570   20.1520 H   0  0  0  0  0  0  0  0  0  0  0  0
   23.9150   10.3350   20.5590 C   0  0  0  0  0  0  0  0  0  0  0  0
   25.2430   10.1280   20.1650 C   0  0  0  0  0  0  0  0  0  0  0  0
   25.8360    9.3790   20.6690 H   0  0  0  0  0  0  0  0  0  0  0  0
   25.8130   10.8730   19.1320 C   0  0  0  0  0  0  0  0  0  0  0  0
   25.0730   11.8270   18.4790 C   0  0  0  0  0  0  0  0  0  0  0  0
   25.5000   12.3990   17.6680 H   0  0  0  0  0  0  0  0  0  0  0  0
   23.7660   12.0380   18.8850 C   0  0  0  0  0  0  0  0  0  0  0  0
   23.0950   12.9710   18.2310 F   0  0  0  0  0  0  0  0  0  0  0  0
   27.0810   10.6750   18.7580 F   0  0  0  0  0  0  0  0  0  0  0  0
   23.3480    9.5210   21.7280 C   0  0  0  0  0  0  0  0  0  0  0  0
   24.1080    8.8380   22.1070 H   0  0  0  0  0  0  0  0  0  0  0  0
   22.4800    8.9510   21.3970 H   0  0  0  0  0  0  0  0  0  0  0  0
   22.9350   10.5090   22.8320 C   0  0  3  0  0  0  0  0  0  0  0  0
   22.1580   11.1150   22.3650 H   0  0  0  0  0  0  0  0  0  0  0  0
   22.3970    9.8220   24.0750 C   0  0  3  0  0  0  0  0  0  0  0  0
   23.2140    9.2900   24.5620 H   0  0  0  0  0  0  0  0  0  0  0  0
   21.8920   10.7940   25.1170 C   0  0  0  0  0  0  0  0  0  0  0  0
   21.1780   11.4800   24.6620 H   0  0  0  0  0  0  0  0  0  0  0  0
   22.7290   11.3590   25.5270 H   0  0  0  0  0  0  0  0  0  0  0  0
   21.2330   10.0340   26.1930 N   0  3  0  0  0  0  0  0  0  0  0  0
   21.9590    9.6830   26.8020 H   0  0  0  0  0  0  0  0  0  0  0  0
   20.7510    9.2580   25.7620 H   0  0  0  0  0  0  0  0  0  0  0  0
   20.2720   10.7300   27.0240 C   0  0  3  0  0  0  0  0  0  0  0  0
   19.6920    9.9830   27.5660 H   0  0  0  0  0  0  0  0  0  0  0  0
   19.2190   11.5270   26.2800 C   0  0  0  0  0  0  0  0  0  0  0  0
   18.8710   12.9260   26.6650 C   0  0  0  0  0  0  0  0  0  0  0  0
   19.5650   13.4600   27.7150 O   0  0  0  0  0  0  0  0  0  0  0  0
   20.2220   12.6570   28.6780 C   0  0  3  0  0  0  0  0  0  0  0  0
   20.8900   13.2410   29.3110 H   0  0  0  0  0  0  0  0  0  0  0  0
   21.0880   11.6500   27.9380 C   0  0  0  0  0  0  0  0  0  0  0  0
   21.8120   12.1920   27.3300 H   0  0  0  0  0  0  0  0  0  0  0  0
   21.6140   11.0370   28.6700 H   0  0  0  0  0  0  0  0  0  0  0  0
   18.5270   10.9790   25.2250 C   0  0  0  0  0  0  0  0  0  0  0  0
   18.7660    9.9740   24.9100 H   0  0  0  0  0  0  0  0  0  0  0  0
   17.5370   11.6700   24.5550 C   0  0  0  0  0  0  0  0  0  0  0  0
   17.2350   13.0070   24.8790 C   0  0  0  0  0  0  0  0  0  0  0  0
   16.4950   13.5370   24.2970 H   0  0  0  0  0  0  0  0  0  0  0  0
   17.8790   13.6720   25.9500 C   0  0  0  0  0  0  0  0  0  0  0  0
   17.6350   14.6900   26.2150 H   0  0  0  0  0  0  0  0  0  0  0  0
   16.8880   10.8820   23.4080 C   0  0  0  0  0  0  0  0  0  0  0  0
   17.5300   10.0300   23.1820 H   0  0  0  0  0  0  0  0  0  0  0  0
   16.8350   11.5380   22.5390 H   0  0  0  0  0  0  0  0  0  0  0  0
   15.4770   10.3490   23.6830 C   0  0  0  0  0  0  0  0  0  0  0  0
   14.8640    9.8910   22.3380 C   0  0  0  0  0  0  0  0  0  0  0  0
   14.8010   10.7420   21.6590 H   0  0  0  0  0  0  0  0  0  0  0  0
   13.8660    9.4900   22.5120 H   0  0  0  0  0  0  0  0  0  0  0  0
   15.4940    9.1190   21.8960 H   0  0  0  0  0  0  0  0  0  0  0  0
   14.5550   11.4090   24.2720 C   0  0  0  0  0  0  0  0  0  0  0  0
   14.4600   12.2380   23.5710 H   0  0  0  0  0  0  0  0  0  0  0  0
   14.9730   11.7730   25.2110 H   0  0  0  0  0  0  0  0  0  0  0  0
   13.5720   10.9740   24.4560 H   0  0  0  0  0  0  0  0  0  0  0  0
   15.5940    9.1940   24.6870 C   0  0  0  0  0  0  0  0  0  0  0  0
   16.2510    8.4250   24.2810 H   0  0  0  0  0  0  0  0  0  0  0  0
   14.6070    8.7690   24.8690 H   0  0  0  0  0  0  0  0  0  0  0  0
   16.0070    9.5680   25.6240 H   0  0  0  0  0  0  0  0  0  0  0  0
   19.2110   12.0600   29.6550 C   0  0  0  0  0  0  0  0  0  0  0  0
   18.9900   11.1060   29.1750 H   0  0  0  0  0  0  0  0  0  0  0  0
   18.3600   13.1360   30.3170 C   0  0  0  0  0  0  0  0  0  0  0  0
   17.3480   12.9030   30.6470 H   0  0  0  0  0  0  0  0  0  0  0  0
   18.3950   14.1610   29.9480 H   0  0  0  0  0  0  0  0  0  0  0  0
   19.5570   12.5540   31.0630 C   0  0  0  0  0  0  0  0  0  0  0  0
   20.4470   13.1620   31.2250 H   0  0  0  0  0  0  0  0  0  0  0  0
   19.4000   11.9040   31.9230 H   0  0  0  0  0  0  0  0  0  0  0  0
   21.3910    8.9020   23.6760 O   0  0  0  0  0  0  0  0  0  0  0  0
   20.6900    9.4040   23.2530 H   0  0  0  0  0  0  0  0  0  0  0  0
   24.0380   11.3220   23.2760 N   0  0  0  0  0  0  0  0  0  0  0  0
   24.9140   10.8930   23.5360 H   0  0  0  0  0  0  0  0  0  0  0  0
   23.8930   12.6450   23.3410 C   0  0  0  0  0  0  0  0  0  0  0  0
   25.1500   13.4240   23.6660 C   0  0  0  0  0  0  0  0  0  0  0  0
   25.9740   12.7310   23.8320 H   0  0  0  0  0  0  0  0  0  0  0  0
   24.9870   14.0170   24.5660 H   0  0  0  0  0  0  0  0  0  0  0  0
   25.3930   14.0850   22.8340 H   0  0  0  0  0  0  0  0  0  0  0  0
   22.7980   13.1740   23.1050 O   0  0  0  0  0  0  0  0  0  0  0  0
  1  2  1  0  0  0  0
  1  3  1  0  0  0  0
  1  9  2  0  0  0  0
  3  4  2  0  0  0  0
  3 12  1  0  0  0  0
  4  5  1  0  0  0  0
  4  6  1  0  0  0  0
  6  7  2  0  0  0  0
  6 11  1  0  0  0  0
  7  8  1  0  0  0  0
  7  9  1  0  0  0  0
  9 10  1  0  0  0  0
 12 13  1  0  0  0  0
 12 14  1  0  0  0  0
 12 15  1  0  0  0  0
 15 16  1  0  0  0  0
 15 17  1  0  0  0  0
 15 68  1  0  0  0  0
 17 18  1  0  0  0  0
 17 19  1  0  0  0  0
 17 66  1  0  0  0  0
 19 20  1  0  0  0  0
 19 21  1  0  0  0  0
 19 22  1  0  0  0  0
 22 23  1  0  0  0  0
 22 24  1  0  0  0  0
 22 25  1  0  0  0  0
 25 26  1  0  0  0  0
 25 27  1  0  0  0  0
 25 32  1  0  0  0  0
 27 28  1  0  0  0  0
 27 35  2  0  0  0  0
 28 29  1  0  0  0  0
 28 40  2  0  0  0  0
 29 30  1  0  0  0  0
 30 31  1  0  0  0  0
 30 32  1  0  0  0  0
 30 58  1  0  0  0  0
 32 33  1  0  0  0  0
 32 34  1  0  0  0  0
 35 36  1  0  0  0  0
 35 37  1  0  0  0  0
 37 38  2  0  0  0  0
 37 42  1  0  0  0  0
 38 39  1  0  0  0  0
 38 40  1  0  0  0  0
 40 41  1  0  0  0  0
 42 43  1  0  0  0  0
 42 44  1  0  0  0  0
 42 45  1  0  0  0  0
 45 46  1  0  0  0  0
 45 50  1  0  0  0  0
 45 54  1  0  0  0  0
 46 47  1  0  0  0  0
 46 48  1  0  0  0  0
 46 49  1  0  0  0  0
 50 51  1  0  0  0  0
 50 52  1  0  0  0  0
 50 53  1  0  0  0  0
 54 55  1  0  0  0  0
 54 56  1  0  0  0  0
 54 57  1  0  0  0  0
 58 59  1  0  0  0  0
 58 60  1  0  0  0  0
 58 63  1  0  0  0  0
 60 61  1  0  0  0  0
 60 62  1  0  0  0  0
 60 63  1  0  0  0  0
 63 64  1  0  0  0  0
 63 65  1  0  0  0  0
 66 67  1  0  0  0  0
 68 69  1  0  0  0  0
 68 70  1  0  0  0  0
 70 71  1  0  0  0  0
 70 75  2  0  0  0  0
 71 72  1  0  0  0  0
 71 73  1  0  0  0  0
 71 74  1  0  0  0  0
M  CHG  1  22   1
M  END
>  <PARENT_CMPD_ID>
3QI1

>  <JOURNAL>
To be Published

>  <Resolution>
2.3

>  <idx>
225

>  <Model>
Test

>  <des_pred_mlr>
7.4903698

>  <RF_Canvas>
7.8784142

>  <DNN_Canvas>
7.3561883

>  <pred_CoMFA>
7.5268002

>  <pred_COMSIA>
7.7041001

>  <pred_abm5>
7.6472569

>  <pred_ff8>
8.147007

>  <pred_gau6>
7.8355846

>  <CID>
BACE_225

>  <RF_canvas>
1

>  <DNN_canvas>
1

$$$$
2ZJI_4488
  MOE2015           3D

 52 53  0  0  0  0  0  0  0  0999 V2000
   19.5900   11.4480   18.9690 C   0  0  0  0  0  0  0  0  0  0  0  0
   26.2570   10.9930   20.5740 C   0  0  0  0  0  0  0  0  0  0  0  0
   20.5750   12.0100   19.8360 O   0  0  0  0  0  0  0  0  0  0  0  0
   24.1870   11.4660   19.3690 C   0  0  0  0  0  0  0  0  0  0  0  0
   24.4970   12.5660   18.5670 C   0  0  0  0  0  0  0  0  0  0  0  0
   21.8780   12.1670   19.4290 C   0  0  0  0  0  0  0  0  0  0  0  0
   22.8770   11.2670   19.8120 C   0  0  0  0  0  0  0  0  0  0  0  0
   20.9240   10.3240   22.3980 C   0  0  0  0  0  0  0  0  0  0  0  0
   20.7720   10.2060   23.9130 C   0  0  0  0  0  0  0  0  0  0  0  0
   22.5580   10.0540   20.6770 C   0  0  0  0  0  0  0  0  0  0  0  0
   23.0760   11.4370   22.6450 C   0  0  0  0  0  0  0  0  0  0  0  0
   22.9790   11.3310   24.1670 C   0  0  0  0  0  0  0  0  0  0  0  0
   20.4630   14.4250   28.9810 C   0  0  0  0  0  0  0  0  0  0  0  0
   20.8980   12.0610   28.2440 C   0  0  0  0  0  0  0  0  0  0  0  0
   21.5160   13.4330   28.5010 C   0  0  0  0  0  0  0  0  0  0  0  0
   20.5560   11.9130   26.7800 C   0  0  0  0  0  0  0  0  0  0  0  0
   21.5180   11.3400   24.6110 C   0  0  0  0  0  0  0  0  0  0  0  0
   19.5430   12.4300   26.3280 O   0  0  0  0  0  0  0  0  0  0  0  0
   20.4440   14.4580   30.7930 S   0  5  0  0  0  0  0  0  0  0  0  0
   21.4100   11.1950   26.0510 N   0  0  0  0  0  0  0  0  0  0  0  0
   22.3610   10.2680   22.1150 N   0  3  0  0  0  0  0  0  0  0  0  0
   25.1860   10.5900   19.7180 O   0  0  0  0  0  0  0  0  0  0  0  0
   23.5060   13.4700   18.1970 C   0  0  0  0  0  0  0  0  0  0  0  0
   22.2010   13.2660   18.6330 C   0  0  0  0  0  0  0  0  0  0  0  0
   18.6300   11.4130   19.4840 H   0  0  0  0  0  0  0  0  0  0  0  0
   19.8880   10.4380   18.6870 H   0  0  0  0  0  0  0  0  0  0  0  0
   19.5000   12.0630   18.0740 H   0  0  0  0  0  0  0  0  0  0  0  0
   26.9370   10.1540   20.7250 H   0  0  0  0  0  0  0  0  0  0  0  0
   25.8540   11.3110   21.5350 H   0  0  0  0  0  0  0  0  0  0  0  0
   26.7970   11.8210   20.1150 H   0  0  0  0  0  0  0  0  0  0  0  0
   25.5130   12.7160   18.2320 H   0  0  0  0  0  0  0  0  0  0  0  0
   20.5090   11.2700   22.0510 H   0  0  0  0  0  0  0  0  0  0  0  0
   20.4110    9.4990   21.9030 H   0  0  0  0  0  0  0  0  0  0  0  0
   21.1810    9.2510   24.2420 H   0  0  0  0  0  0  0  0  0  0  0  0
   19.7150   10.2580   24.1730 H   0  0  0  0  0  0  0  0  0  0  0  0
   23.3820    9.3490   20.5640 H   0  0  0  0  0  0  0  0  0  0  0  0
   21.6430    9.6090   20.2870 H   0  0  0  0  0  0  0  0  0  0  0  0
   24.1190   11.4190   22.3290 H   0  0  0  0  0  0  0  0  0  0  0  0
   22.6070   12.3580   22.2980 H   0  0  0  0  0  0  0  0  0  0  0  0
   23.4970   12.1770   24.6190 H   0  0  0  0  0  0  0  0  0  0  0  0
   23.4470   10.4020   24.4930 H   0  0  0  0  0  0  0  0  0  0  0  0
   19.4830   14.1210   28.6130 H   0  0  0  0  0  0  0  0  0  0  0  0
   20.7010   15.4190   28.6020 H   0  0  0  0  0  0  0  0  0  0  0  0
   19.9910   11.9570   28.8390 H   0  0  0  0  0  0  0  0  0  0  0  0
   21.6100   11.2860   28.5280 H   0  0  0  0  0  0  0  0  0  0  0  0
   22.2900   13.3380   29.2630 H   0  0  0  0  0  0  0  0  0  0  0  0
   21.9590   13.8030   27.5770 H   0  0  0  0  0  0  0  0  0  0  0  0
   21.0740   12.2970   24.3360 H   0  0  0  0  0  0  0  0  0  0  0  0
   22.0040   10.5250   26.5180 H   0  0  0  0  0  0  0  0  0  0  0  0
   22.7710    9.4830   22.6010 H   0  0  0  0  0  0  0  0  0  0  0  0
   23.7480   14.3210   17.5780 H   0  0  0  0  0  0  0  0  0  0  0  0
   21.4290   13.9670   18.3520 H   0  0  0  0  0  0  0  0  0  0  0  0
  1  3  1  0  0  0  0
  1 25  1  0  0  0  0
  1 26  1  0  0  0  0
  1 27  1  0  0  0  0
  2 22  1  0  0  0  0
  2 28  1  0  0  0  0
  2 29  1  0  0  0  0
  2 30  1  0  0  0  0
  3  6  1  0  0  0  0
  4  5  1  0  0  0  0
  4  7  2  0  0  0  0
  4 22  1  0  0  0  0
  5 23  2  0  0  0  0
  5 31  1  0  0  0  0
  6  7  1  0  0  0  0
  6 24  2  0  0  0  0
  7 10  1  0  0  0  0
  8  9  1  0  0  0  0
  8 21  1  0  0  0  0
  8 32  1  0  0  0  0
  8 33  1  0  0  0  0
  9 17  1  0  0  0  0
  9 34  1  0  0  0  0
  9 35  1  0  0  0  0
 10 21  1  0  0  0  0
 10 36  1  0  0  0  0
 10 37  1  0  0  0  0
 11 12  1  0  0  0  0
 11 21  1  0  0  0  0
 11 38  1  0  0  0  0
 11 39  1  0  0  0  0
 12 17  1  0  0  0  0
 12 40  1  0  0  0  0
 12 41  1  0  0  0  0
 13 15  1  0  0  0  0
 13 19  1  0  0  0  0
 13 42  1  0  0  0  0
 13 43  1  0  0  0  0
 14 15  1  0  0  0  0
 14 16  1  0  0  0  0
 14 44  1  0  0  0  0
 14 45  1  0  0  0  0
 15 46  1  0  0  0  0
 15 47  1  0  0  0  0
 16 18  2  0  0  0  0
 16 20  1  0  0  0  0
 17 20  1  0  0  0  0
 17 48  1  0  0  0  0
 20 49  1  0  0  0  0
 21 50  1  0  0  0  0
 23 24  1  0  0  0  0
 23 51  1  0  0  0  0
 24 52  1  0  0  0  0
M  CHG  1  19  -1
M  CHG  1  21   1
M  END
>  <PARENT_CMPD_ID>
2ZJI

>  <STANDARD_TYPE>
IC50

>  <RELATION>
=

>  <COMPOUND_KEY>
2

>  <PUBMED_ID>
19284778

>  <JOURNAL>
Biochemistry

>  <YEAR>
2009

>  <VOLUME>
48

>  <FIRST_PAGE>
4488

>  <Company>
Sunesis

>  <Resolution>
2.3

>  <idx>
226

>  <Model>
Test

>  <des_pred_mlr>
5.8645201

>  <RF_Canvas>
4.8351912

>  <DNN_Canvas>
4.0500002

>  <pred_CoMFA>
4.0762

>  <pred_COMSIA>
5.6445999

>  <pred_abm5>
4.7318239

>  <pred_ff8>
5.0318098

>  <pred_gau6>
4.836792

>  <CID>
BACE_226

>  <RF_canvas>
0

>  <DNN_canvas>
0

$$$$
2WJO_3862
  MOE2015           3D

 76 80  0  0  1  0  0  0  0  0999 V2000
   20.7660   15.4420   17.0170 C   0  0  0  0  0  0  0  0  0  0  0  0
   19.5790   15.2440   16.6480 C   0  0  0  0  0  0  0  0  0  0  0  0
   21.5980   14.7280   18.2340 C   0  0  0  0  0  0  0  0  0  0  0  0
   20.1570    9.9040   21.1570 C   0  0  0  0  0  0  0  0  0  0  0  0
   20.2990    8.8500   20.9710 H   0  0  0  0  0  0  0  0  0  0  0  0
   18.8100   14.3170   17.3240 C   0  0  0  0  0  0  0  0  0  0  0  0
   20.8120   13.8250   18.9220 C   0  0  0  0  0  0  0  0  0  0  0  0
   19.5810   10.6620   20.2410 C   0  0  0  0  0  0  0  0  0  0  0  0
   19.7120   12.5830   21.5700 C   0  0  0  0  0  0  0  0  0  0  0  0
   20.3880   11.7790   22.6640 C   0  0  0  0  0  0  0  0  0  0  0  0
   20.5820   10.4600   22.3640 C   0  0  0  0  0  0  0  0  0  0  0  0
   19.4770   13.5790   18.5220 C   0  0  3  0  0  0  0  0  0  0  0  0
   19.2740   11.9500   20.3230 C   0  0  0  0  0  0  0  0  0  0  0  0
   21.8250   10.0080   24.4890 C   0  0  0  0  0  0  0  0  0  0  0  0
   23.6230   12.9560   22.6280 C   0  0  0  0  0  0  0  0  0  0  0  0
   20.8470   12.3100   23.9290 C   0  0  0  0  0  0  0  0  0  0  0  0
   24.6380   10.9150   18.7300 C   0  0  0  0  0  0  0  0  0  0  0  0
   20.5410   13.2160   29.3320 C   0  0  0  0  0  0  0  0  0  0  0  0
   24.6250   10.0510   20.0380 C   0  0  0  0  0  0  0  0  0  0  0  0
   25.2340   12.2850   18.9680 C   0  0  0  0  0  0  0  0  0  0  0  0
   19.7290   12.2490   28.5340 C   0  0  0  0  0  0  0  0  0  0  0  0
   21.1000   14.3790   28.5400 C   0  0  0  0  0  0  0  0  0  0  0  0
   24.1030   10.8170   21.3410 C   0  0  0  0  0  0  0  0  0  0  0  0
   24.4480   12.9090   20.1840 C   0  0  0  0  0  0  0  0  0  0  0  0
   20.6330   11.5640   27.5960 C   0  0  0  0  0  0  0  0  0  0  0  0
   22.1870   13.8430   27.6000 C   0  0  0  0  0  0  0  0  0  0  0  0
   24.6300   12.1560   21.6040 C   0  0  0  0  0  0  0  0  0  0  0  0
   21.5410   12.6220   26.8910 C   0  0  0  0  0  0  0  0  0  0  0  0
   23.2300   13.1320   25.1450 C   0  0  0  0  0  0  0  0  0  0  0  0
   22.5250   11.9470   25.8150 C   0  0  3  0  0  0  0  0  0  0  0  0
   21.6260   11.3020   24.8100 N   0  0  0  0  0  0  0  0  0  0  0  0
   21.2520    9.6430   23.2140 N   0  3  0  0  0  0  0  0  0  0  0  0
   22.5330    9.1110   25.3140 N   0  0  0  0  0  0  0  0  0  0  0  0
   23.8560   12.6820   23.9440 N   0  0  0  0  0  0  0  0  0  0  0  0
   22.7220   13.7540   22.1990 O   0  0  0  0  0  0  0  0  0  0  0  0
   18.5530   12.6170   19.1740 O   0  0  0  0  0  0  0  0  0  0  0  0
   21.3110   16.1850   16.4540 H   0  0  0  0  0  0  0  0  0  0  0  0
   19.1670   15.7920   15.8130 H   0  0  0  0  0  0  0  0  0  0  0  0
   22.6310   14.9370   18.4690 H   0  0  0  0  0  0  0  0  0  0  0  0
   18.5000   13.5600   16.6040 H   0  0  0  0  0  0  0  0  0  0  0  0
   17.9310   14.8360   17.7070 H   0  0  0  0  0  0  0  0  0  0  0  0
   21.2200   13.3010   19.7740 H   0  0  0  0  0  0  0  0  0  0  0  0
   19.3290   10.1730   19.3110 H   0  0  0  0  0  0  0  0  0  0  0  0
   19.5500   13.6410   21.7130 H   0  0  0  0  0  0  0  0  0  0  0  0
   19.1320   14.3640   19.1950 H   0  0  0  0  0  0  0  0  0  0  0  0
   19.9770   12.6500   24.4900 H   0  0  0  0  0  0  0  0  0  0  0  0
   21.5010   13.1580   23.7240 H   0  0  0  0  0  0  0  0  0  0  0  0
   23.6140   11.0320   18.3740 H   0  0  0  0  0  0  0  0  0  0  0  0
   25.2290   10.4000   17.9730 H   0  0  0  0  0  0  0  0  0  0  0  0
   21.3770   12.6740   29.7740 H   0  0  0  0  0  0  0  0  0  0  0  0
   19.9090   13.6170   30.1240 H   0  0  0  0  0  0  0  0  0  0  0  0
   25.6420    9.7100   20.2300 H   0  0  0  0  0  0  0  0  0  0  0  0
   23.9790    9.1900   19.8690 H   0  0  0  0  0  0  0  0  0  0  0  0
   25.1130   12.9080   18.0820 H   0  0  0  0  0  0  0  0  0  0  0  0
   26.2930   12.1980   19.2090 H   0  0  0  0  0  0  0  0  0  0  0  0
   18.9560   12.7830   27.9810 H   0  0  0  0  0  0  0  0  0  0  0  0
   19.2630   11.5210   29.1980 H   0  0  0  0  0  0  0  0  0  0  0  0
   21.5300   15.1150   29.2190 H   0  0  0  0  0  0  0  0  0  0  0  0
   20.3050   14.8440   27.9570 H   0  0  0  0  0  0  0  0  0  0  0  0
   24.3480   10.1960   22.2030 H   0  0  0  0  0  0  0  0  0  0  0  0
   23.0200   10.9060   21.2540 H   0  0  0  0  0  0  0  0  0  0  0  0
   23.3870   12.9010   19.9350 H   0  0  0  0  0  0  0  0  0  0  0  0
   24.7850   13.9380   20.3060 H   0  0  0  0  0  0  0  0  0  0  0  0
   20.0460   11.0310   26.8480 H   0  0  0  0  0  0  0  0  0  0  0  0
   21.2560   10.8550   28.1420 H   0  0  0  0  0  0  0  0  0  0  0  0
   23.0660   13.5360   28.1670 H   0  0  0  0  0  0  0  0  0  0  0  0
   22.4720   14.6020   26.8720 H   0  0  0  0  0  0  0  0  0  0  0  0
   25.6410   12.1220   22.0090 H   0  0  0  0  0  0  0  0  0  0  0  0
   20.7210   13.1920   26.4540 H   0  0  0  0  0  0  0  0  0  0  0  0
   23.9840   13.5380   25.8200 H   0  0  0  0  0  0  0  0  0  0  0  0
   22.4990   13.9060   24.9090 H   0  0  0  0  0  0  0  0  0  0  0  0
   23.2340   11.2300   26.2290 H   0  0  0  0  0  0  0  0  0  0  0  0
   22.6630    8.1530   25.0230 H   0  0  0  0  0  0  0  0  0  0  0  0
   22.9110    9.4270   26.1960 H   0  0  0  0  0  0  0  0  0  0  0  0
   24.6180   12.0370   24.0980 H   0  0  0  0  0  0  0  0  0  0  0  0
   21.3620    8.6810   22.9260 H   0  0  0  0  0  0  0  0  0  0  0  0
  1  2  2  0  0  0  0
  1  3  1  0  0  0  0
  1 37  1  0  0  0  0
  2  6  1  0  0  0  0
  2 38  1  0  0  0  0
  3  7  2  0  0  0  0
  3 39  1  0  0  0  0
  4  5  1  0  0  0  0
  4  8  1  0  0  0  0
  4 11  2  0  0  0  0
  6 12  1  0  0  0  0
  6 40  1  0  0  0  0
  6 41  1  0  0  0  0
  7 12  1  0  0  0  0
  7 42  1  0  0  0  0
  8 13  2  0  0  0  0
  8 43  1  0  0  0  0
  9 10  2  0  0  0  0
  9 13  1  0  0  0  0
  9 44  1  0  0  0  0
 10 11  1  0  0  0  0
 10 16  1  0  0  0  0
 11 32  1  0  0  0  0
 12 36  1  0  0  0  0
 12 45  1  0  0  0  0
 13 36  1  0  0  0  0
 14 31  1  0  0  0  0
 14 32  2  0  0  0  0
 14 33  1  0  0  0  0
 15 27  1  0  0  0  0
 15 34  1  0  0  0  0
 15 35  2  0  0  0  0
 16 31  1  0  0  0  0
 16 46  1  0  0  0  0
 16 47  1  0  0  0  0
 17 19  1  0  0  0  0
 17 20  1  0  0  0  0
 17 48  1  0  0  0  0
 17 49  1  0  0  0  0
 18 21  1  0  0  0  0
 18 22  1  0  0  0  0
 18 50  1  0  0  0  0
 18 51  1  0  0  0  0
 19 23  1  0  0  0  0
 19 52  1  0  0  0  0
 19 53  1  0  0  0  0
 20 24  1  0  0  0  0
 20 54  1  0  0  0  0
 20 55  1  0  0  0  0
 21 25  1  0  0  0  0
 21 56  1  0  0  0  0
 21 57  1  0  0  0  0
 22 26  1  0  0  0  0
 22 58  1  0  0  0  0
 22 59  1  0  0  0  0
 23 27  1  0  0  0  0
 23 60  1  0  0  0  0
 23 61  1  0  0  0  0
 24 27  1  0  0  0  0
 24 62  1  0  0  0  0
 24 63  1  0  0  0  0
 25 28  1  0  0  0  0
 25 64  1  0  0  0  0
 25 65  1  0  0  0  0
 26 28  1  0  0  0  0
 26 66  1  0  0  0  0
 26 67  1  0  0  0  0
 27 68  1  0  0  0  0
 28 30  1  0  0  0  0
 28 69  1  0  0  0  0
 29 30  1  0  0  0  0
 29 34  1  0  0  0  0
 29 70  1  0  0  0  0
 29 71  1  0  0  0  0
 30 31  1  0  0  0  0
 30 72  1  0  0  0  0
 32 76  1  0  0  0  0
 33 73  1  0  0  0  0
 33 74  1  0  0  0  0
 34 75  1  0  0  0  0
M  CHG  1  32   1
M  END
>  <PARENT_CMPD_ID>
2WJO

>  <PUBMED_ID>
20158188

>  <JOURNAL>
J.Med.Chem.

>  <YEAR>
2010

>  <VOLUME>
53

>  <FIRST_PAGE>
3862

>  <Company>
OpenEye

>  <Resolution>
2.5

>  <idx>
227

>  <Model>
Test

>  <des_pred_mlr>
6.90307

>  <RF_Canvas>
6.8987885

>  <DNN_Canvas>
6.2024474

>  <pred_CoMFA>
5.5124998

>  <pred_COMSIA>
6.9025002

>  <pred_abm5>
6.5445704

>  <pred_ff8>
6.0364289

>  <pred_gau6>
7.1456199

>  <CID>
BACE_227

>  <RF_canvas>
0

>  <DNN_canvas>
0

$$$$
2ZHR_3663
  MOE2015           3D

125125  0  0  1  0  0  0  0  0999 V2000
   32.5580   16.1280   20.8510 N   0  3  0  0  0  0  0  0  0  0  0  0
   31.9080   15.2690   21.8750 C   0  0  3  0  0  0  0  0  0  0  0  0
   30.4950   14.8460   21.4590 C   0  0  0  0  0  0  0  0  0  0  0  0
   29.9140   15.3880   20.5190 O   0  0  0  0  0  0  0  0  0  0  0  0
   31.8650   15.9980   23.2330 C   0  0  0  0  0  0  0  0  0  0  0  0
   30.8290   17.1150   23.3580 C   0  0  0  0  0  0  0  0  0  0  0  0
   30.8770   17.8240   24.7160 C   0  0  0  0  0  0  0  0  0  0  0  0
   31.8380   18.5810   24.9600 O   0  0  0  0  0  0  0  0  0  0  0  0
   29.9650   17.6230   25.5470 O   0  5  0  0  0  0  0  0  0  0  0  0
   29.9500   13.8630   22.1610 N   0  0  0  0  0  0  0  0  0  0  0  0
   28.6110   13.3910   21.8660 C   0  0  3  0  0  0  0  0  0  0  0  0
   27.7250   13.5020   23.0970 C   0  0  0  0  0  0  0  0  0  0  0  0
   28.1540   13.2160   24.2170 O   0  0  0  0  0  0  0  0  0  0  0  0
   28.6160   11.9170   21.3980 C   0  0  0  0  0  0  0  0  0  0  0  0
   29.4000   11.7810   20.1080 C   0  0  0  0  0  0  0  0  0  0  0  0
   29.2120   11.0320   22.4760 C   0  0  0  0  0  0  0  0  0  0  0  0
   26.4900   13.9340   22.8790 N   0  0  0  0  0  0  0  0  0  0  0  0
   25.5200   14.0560   23.9510 C   0  0  3  0  0  0  0  0  0  0  0  0
   24.2070   13.4540   23.4680 C   0  0  0  0  0  0  0  0  0  0  0  0
   23.1960   14.1410   23.3340 O   0  0  0  0  0  0  0  0  0  0  0  0
   25.3270   15.5230   24.3530 C   0  0  0  0  0  0  0  0  0  0  0  0
   26.5300   16.0850   25.0900 C   0  0  0  0  0  0  0  0  0  0  0  0
   27.3970   16.7410   24.4980 O   0  0  0  0  0  0  0  0  0  0  0  0
   26.6040   15.8090   26.3910 N   0  0  0  0  0  0  0  0  0  0  0  0
   23.2560   12.1070   19.6590 C   0  0  0  0  0  0  0  0  0  0  0  0
   24.9480   10.2590   19.5710 C   0  0  0  0  0  0  0  0  0  0  0  0
   24.2240   11.2510   20.4640 C   0  0  0  0  0  0  0  0  0  0  0  0
   23.4640   10.5160   21.5750 C   0  0  0  0  0  0  0  0  0  0  0  0
   24.2420   12.1550   23.1970 N   0  0  0  0  0  0  0  0  0  0  0  0
   23.0670   11.4410   22.7260 C   0  0  3  0  0  0  0  0  0  0  0  0
   22.4900   10.6380   23.8860 C   0  0  3  0  0  0  0  0  0  0  0  0
   23.1080    9.6740   24.3380 O   0  0  0  0  0  0  0  0  0  0  0  0
   22.1150   11.4490   24.8870 C   0  0  0  0  0  0  0  0  0  0  0  0
   20.8580   11.0030   25.6500 C   0  0  3  0  0  0  0  0  0  0  0  0
   20.8820   11.5560   27.0720 C   0  0  0  0  0  0  0  0  0  0  0  0
   19.6230   11.5320   24.9320 C   0  0  0  0  0  0  0  0  0  0  0  0
   19.6480   12.6260   24.3740 O   0  0  0  0  0  0  0  0  0  0  0  0
   18.5300   10.7870   25.0380 N   0  0  0  0  0  0  0  0  0  0  0  0
   17.2700   11.1530   24.4190 C   0  0  3  0  0  0  0  0  0  0  0  0
   16.5150   12.1010   25.3380 C   0  0  0  0  0  0  0  0  0  0  0  0
   16.6020   11.9870   26.5640 O   0  0  0  0  0  0  0  0  0  0  0  0
   16.4360    9.9070   24.1590 C   0  0  0  0  0  0  0  0  0  0  0  0
   15.7900   13.0460   24.7470 N   0  0  0  0  0  0  0  0  0  0  0  0
   14.9930   13.9750   25.5360 C   0  0  3  0  0  0  0  0  0  0  0  0
   13.6470   13.2980   25.7230 C   0  0  0  0  0  0  0  0  0  0  0  0
   13.1320   12.6640   24.8050 O   0  0  0  0  0  0  0  0  0  0  0  0
   14.8010   15.3060   24.8080 C   0  0  0  0  0  0  0  0  0  0  0  0
   16.0970   16.0120   24.4510 C   0  0  0  0  0  0  0  0  0  0  0  0
   15.8820   17.4650   24.0540 C   0  0  0  0  0  0  0  0  0  0  0  0
   14.9490   17.7450   23.2690 O   0  0  0  0  0  0  0  0  0  0  0  0
   16.6540   18.3270   24.5220 O   0  5  0  0  0  0  0  0  0  0  0  0
   13.0850   13.4180   26.9160 N   0  0  0  0  0  0  0  0  0  0  0  0
   11.8040   12.7990   27.2090 C   0  0  3  0  0  0  0  0  0  0  0  0
   10.8000   13.8460   27.6880 C   0  0  0  0  0  0  0  0  0  0  0  0
    9.6900   13.9050   27.1160 O   0  0  0  0  0  0  0  0  0  0  0  0
   11.9900   11.7170   28.2730 C   0  0  0  0  0  0  0  0  0  0  0  0
   10.7370   10.9610   28.5970 C   0  0  0  0  0  0  0  0  0  0  0  0
   10.0840   10.2170   27.6220 C   0  0  0  0  0  0  0  0  0  0  0  0
   10.2170   10.9750   29.8880 C   0  0  0  0  0  0  0  0  0  0  0  0
    8.9300    9.4930   27.9270 C   0  0  0  0  0  0  0  0  0  0  0  0
    9.0650   10.2560   30.2040 C   0  0  0  0  0  0  0  0  0  0  0  0
    8.4210    9.5130   29.2200 C   0  0  0  0  0  0  0  0  0  0  0  0
   11.1370   14.5920   28.6320 O   0  5  0  0  0  0  0  0  0  0  0  0
   32.5800   15.6400   19.9670 H   0  0  0  0  0  0  0  0  0  0  0  0
   33.5010   16.3420   21.1410 H   0  0  0  0  0  0  0  0  0  0  0  0
   32.0340   16.9860   20.7490 H   0  0  0  0  0  0  0  0  0  0  0  0
   32.5070   14.3630   21.9680 H   0  0  0  0  0  0  0  0  0  0  0  0
   32.8490   16.4330   23.4100 H   0  0  0  0  0  0  0  0  0  0  0  0
   31.6520   15.2570   24.0030 H   0  0  0  0  0  0  0  0  0  0  0  0
   29.8360   16.6850   23.2250 H   0  0  0  0  0  0  0  0  0  0  0  0
   31.0140   17.8500   22.5750 H   0  0  0  0  0  0  0  0  0  0  0  0
   30.4740   13.4370   22.9120 H   0  0  0  0  0  0  0  0  0  0  0  0
   28.2220   14.0180   21.0630 H   0  0  0  0  0  0  0  0  0  0  0  0
   27.5890   11.6000   21.2140 H   0  0  0  0  0  0  0  0  0  0  0  0
   30.4310   12.0940   20.2740 H   0  0  0  0  0  0  0  0  0  0  0  0
   28.9490   12.4100   19.3400 H   0  0  0  0  0  0  0  0  0  0  0  0
   29.3850   10.7410   19.7810 H   0  0  0  0  0  0  0  0  0  0  0  0
   30.2400   11.3380   22.6700 H   0  0  0  0  0  0  0  0  0  0  0  0
   29.1990    9.9940   22.1430 H   0  0  0  0  0  0  0  0  0  0  0  0
   28.6260   11.1280   23.3900 H   0  0  0  0  0  0  0  0  0  0  0  0
   26.2170   14.1850   21.9400 H   0  0  0  0  0  0  0  0  0  0  0  0
   25.8750   13.5250   24.8340 H   0  0  0  0  0  0  0  0  0  0  0  0
   24.4540   15.5960   25.0010 H   0  0  0  0  0  0  0  0  0  0  0  0
   25.1610   16.1140   23.4520 H   0  0  0  0  0  0  0  0  0  0  0  0
   27.3900   16.1390   26.9330 H   0  0  0  0  0  0  0  0  0  0  0  0
   25.8740   15.2700   26.8350 H   0  0  0  0  0  0  0  0  0  0  0  0
   23.8000   12.6270   18.8710 H   0  0  0  0  0  0  0  0  0  0  0  0
   22.7830   12.8360   20.3160 H   0  0  0  0  0  0  0  0  0  0  0  0
   22.4920   11.4700   19.2130 H   0  0  0  0  0  0  0  0  0  0  0  0
   25.4820   10.7970   18.7880 H   0  0  0  0  0  0  0  0  0  0  0  0
   24.2240    9.5820   19.1170 H   0  0  0  0  0  0  0  0  0  0  0  0
   25.6580    9.6850   20.1660 H   0  0  0  0  0  0  0  0  0  0  0  0
   24.9730   11.9030   20.9130 H   0  0  0  0  0  0  0  0  0  0  0  0
   24.1000    9.7230   21.9680 H   0  0  0  0  0  0  0  0  0  0  0  0
   22.5600   10.0800   21.1500 H   0  0  0  0  0  0  0  0  0  0  0  0
   25.1080   11.6500   23.3210 H   0  0  0  0  0  0  0  0  0  0  0  0
   22.3140   12.1400   22.3630 H   0  0  0  0  0  0  0  0  0  0  0  0
   21.6490   10.1510   23.3930 H   0  0  0  0  0  0  0  0  0  0  0  0
   23.8800   10.0130   24.7970 H   0  0  0  0  0  0  0  0  0  0  0  0
   21.9230   12.4370   24.4680 H   0  0  0  0  0  0  0  0  0  0  0  0
   22.9380   11.5100   25.5990 H   0  0  0  0  0  0  0  0  0  0  0  0
   20.8330    9.9140   25.6890 H   0  0  0  0  0  0  0  0  0  0  0  0
   20.9070   12.6450   27.0380 H   0  0  0  0  0  0  0  0  0  0  0  0
   21.7680   11.1880   27.5900 H   0  0  0  0  0  0  0  0  0  0  0  0
   19.9880   11.2300   27.6040 H   0  0  0  0  0  0  0  0  0  0  0  0
   18.5770    9.9310   25.5710 H   0  0  0  0  0  0  0  0  0  0  0  0
   17.4650   11.6480   23.4680 H   0  0  0  0  0  0  0  0  0  0  0  0
   16.2340    9.4010   25.1030 H   0  0  0  0  0  0  0  0  0  0  0  0
   16.9830    9.2350   23.4970 H   0  0  0  0  0  0  0  0  0  0  0  0
   15.4940   10.1920   23.6900 H   0  0  0  0  0  0  0  0  0  0  0  0
   15.7920   13.1200   23.7400 H   0  0  0  0  0  0  0  0  0  0  0  0
   15.4850   14.2010   26.4820 H   0  0  0  0  0  0  0  0  0  0  0  0
   14.2180   15.9660   25.4500 H   0  0  0  0  0  0  0  0  0  0  0  0
   14.2500   15.1160   23.8870 H   0  0  0  0  0  0  0  0  0  0  0  0
   16.5620   15.4870   23.6160 H   0  0  0  0  0  0  0  0  0  0  0  0
   16.7610   15.9810   25.3150 H   0  0  0  0  0  0  0  0  0  0  0  0
   13.5550   13.9490   27.6350 H   0  0  0  0  0  0  0  0  0  0  0  0
   11.4140   12.3440   26.2990 H   0  0  0  0  0  0  0  0  0  0  0  0
   12.3500   12.1920   29.1860 H   0  0  0  0  0  0  0  0  0  0  0  0
   12.7360   11.0080   27.9140 H   0  0  0  0  0  0  0  0  0  0  0  0
   10.4740   10.1990   26.6150 H   0  0  0  0  0  0  0  0  0  0  0  0
   10.7130   11.5510   30.6560 H   0  0  0  0  0  0  0  0  0  0  0  0
    8.4340    8.9180   27.1590 H   0  0  0  0  0  0  0  0  0  0  0  0
    8.6740   10.2760   31.2100 H   0  0  0  0  0  0  0  0  0  0  0  0
    7.5290    8.9540   29.4600 H   0  0  0  0  0  0  0  0  0  0  0  0
  1  2  1  0  0  0  0
  1 64  1  0  0  0  0
  1 65  1  0  0  0  0
  1 66  1  0  0  0  0
  2  3  1  0  0  0  0
  2  5  1  0  0  0  0
  2 67  1  0  0  0  0
  3  4  2  0  0  0  0
  3 10  1  0  0  0  0
  5  6  1  0  0  0  0
  5 68  1  0  0  0  0
  5 69  1  0  0  0  0
  6  7  1  0  0  0  0
  6 70  1  0  0  0  0
  6 71  1  0  0  0  0
  7  8  2  0  0  0  0
  7  9  1  0  0  0  0
 10 11  1  0  0  0  0
 10 72  1  0  0  0  0
 11 12  1  0  0  0  0
 11 14  1  0  0  0  0
 11 73  1  0  0  0  0
 12 13  2  0  0  0  0
 12 17  1  0  0  0  0
 14 15  1  0  0  0  0
 14 16  1  0  0  0  0
 14 74  1  0  0  0  0
 15 75  1  0  0  0  0
 15 76  1  0  0  0  0
 15 77  1  0  0  0  0
 16 78  1  0  0  0  0
 16 79  1  0  0  0  0
 16 80  1  0  0  0  0
 17 18  1  0  0  0  0
 17 81  1  0  0  0  0
 18 19  1  0  0  0  0
 18 21  1  0  0  0  0
 18 82  1  0  0  0  0
 19 20  2  0  0  0  0
 19 29  1  0  0  0  0
 21 22  1  0  0  0  0
 21 83  1  0  0  0  0
 21 84  1  0  0  0  0
 22 23  2  0  0  0  0
 22 24  1  0  0  0  0
 24 85  1  0  0  0  0
 24 86  1  0  0  0  0
 25 27  1  0  0  0  0
 25 87  1  0  0  0  0
 25 88  1  0  0  0  0
 25 89  1  0  0  0  0
 26 27  1  0  0  0  0
 26 90  1  0  0  0  0
 26 91  1  0  0  0  0
 26 92  1  0  0  0  0
 27 28  1  0  0  0  0
 27 93  1  0  0  0  0
 28 30  1  0  0  0  0
 28 94  1  0  0  0  0
 28 95  1  0  0  0  0
 29 30  1  0  0  0  0
 29 96  1  0  0  0  0
 30 31  1  0  0  0  0
 30 97  1  0  0  0  0
 31 32  1  0  0  0  0
 31 33  1  0  0  0  0
 31 98  1  0  0  0  0
 32 99  1  0  0  0  0
 33 34  1  0  0  0  0
 33100  1  0  0  0  0
 33101  1  0  0  0  0
 34 35  1  0  0  0  0
 34 36  1  0  0  0  0
 34102  1  0  0  0  0
 35103  1  0  0  0  0
 35104  1  0  0  0  0
 35105  1  0  0  0  0
 36 37  2  0  0  0  0
 36 38  1  0  0  0  0
 38 39  1  0  0  0  0
 38106  1  0  0  0  0
 39 40  1  0  0  0  0
 39 42  1  0  0  0  0
 39107  1  0  0  0  0
 40 41  2  0  0  0  0
 40 43  1  0  0  0  0
 42108  1  0  0  0  0
 42109  1  0  0  0  0
 42110  1  0  0  0  0
 43 44  1  0  0  0  0
 43111  1  0  0  0  0
 44 45  1  0  0  0  0
 44 47  1  0  0  0  0
 44112  1  0  0  0  0
 45 46  2  0  0  0  0
 45 52  1  0  0  0  0
 47 48  1  0  0  0  0
 47113  1  0  0  0  0
 47114  1  0  0  0  0
 48 49  1  0  0  0  0
 48115  1  0  0  0  0
 48116  1  0  0  0  0
 49 50  2  0  0  0  0
 49 51  1  0  0  0  0
 52 53  1  0  0  0  0
 52117  1  0  0  0  0
 53 54  1  0  0  0  0
 53 56  1  0  0  0  0
 53118  1  0  0  0  0
 54 55  2  0  0  0  0
 54 63  1  0  0  0  0
 56 57  1  0  0  0  0
 56119  1  0  0  0  0
 56120  1  0  0  0  0
 57 58  2  0  0  0  0
 57 59  1  0  0  0  0
 58 60  1  0  0  0  0
 58121  1  0  0  0  0
 59 61  2  0  0  0  0
 59122  1  0  0  0  0
 60 62  2  0  0  0  0
 60123  1  0  0  0  0
 61 62  1  0  0  0  0
 61124  1  0  0  0  0
 62125  1  0  0  0  0
M  CHG  1   1   1
M  CHG  1   9  -1
M  CHG  1  51  -1
M  CHG  1  63  -1
M  END
>  <PARENT_CMPD_ID>
2ZHR

>  <PUBMED_ID>
18378702

>  <JOURNAL>
Mol.Cell.Biol. 

>  <YEAR>
2008

>  <VOLUME>
28

>  <FIRST_PAGE>
3663

>  <Company>
RIKEN

>  <Resolution>
2.5

>  <idx>
228

>  <Model>
Test

>  <des_pred_mlr>
7.7694998

>  <RF_Canvas>
7.3187885

>  <DNN_Canvas>
6.5663853

>  <pred_CoMFA>
6.9554

>  <pred_COMSIA>
6.2951999

>  <pred_abm5>
6.4554367

>  <pred_ff8>
8.2001295

>  <pred_gau6>
7.1891847

>  <CID>
BACE_228

>  <RF_canvas>
0

>  <DNN_canvas>
1

$$$$
2ZJH_4488
  MOE2015           3D

 44 45  0  0  0  0  0  0  0  0999 V2000
   25.1530    9.9210   20.9750 C   0  0  0  0  0  0  0  0  0  0  0  0
   26.4520   10.2580   20.5930 C   0  0  0  0  0  0  0  0  0  0  0  0
   24.2740   11.6340   19.5070 C   0  0  0  0  0  0  0  0  0  0  0  0
   24.0660   10.6120   20.4360 C   0  0  0  0  0  0  0  0  0  0  0  0
   20.9970   10.1500   22.5110 C   0  0  0  0  0  0  0  0  0  0  0  0
   20.8130   10.0020   24.0200 C   0  0  0  0  0  0  0  0  0  0  0  0
   22.6500   10.2680   20.8360 C   0  0  0  0  0  0  0  0  0  0  0  0
   22.9060   11.5960   22.8370 C   0  0  0  0  0  0  0  0  0  0  0  0
   22.7980   11.4580   24.3540 C   0  0  0  0  0  0  0  0  0  0  0  0
   21.0620   13.0640   30.2690 C   0  0  0  0  0  0  0  0  0  0  0  0
   20.3010   11.6580   28.3370 C   0  0  0  0  0  0  0  0  0  0  0  0
   20.2360   13.0340   28.9930 C   0  0  0  0  0  0  0  0  0  0  0  0
   20.2480   11.7780   26.8310 C   0  0  0  0  0  0  0  0  0  0  0  0
   21.3360   11.2460   24.7310 C   0  0  0  0  0  0  0  0  0  0  0  0
   19.3760   12.4410   26.2880 O   0  0  0  0  0  0  0  0  0  0  0  0
   22.7660   13.4820   29.8350 S   0  5  0  0  0  0  0  0  0  0  0  0
   21.1900   11.1180   26.1650 N   0  0  0  0  0  0  0  0  0  0  0  0
   22.4280   10.3280   22.2760 N   0  3  0  0  0  0  0  0  0  0  0  0
   26.6590   11.2810   19.6650 C   0  0  0  0  0  0  0  0  0  0  0  0
   25.5710   11.9700   19.1260 C   0  0  0  0  0  0  0  0  0  0  0  0
   24.9880    9.1260   21.6870 H   0  0  0  0  0  0  0  0  0  0  0  0
   27.2950    9.7290   21.0140 H   0  0  0  0  0  0  0  0  0  0  0  0
   23.4320   12.1620   19.0850 H   0  0  0  0  0  0  0  0  0  0  0  0
   20.4460   11.0180   22.1490 H   0  0  0  0  0  0  0  0  0  0  0  0
   20.6410    9.2550   22.0000 H   0  0  0  0  0  0  0  0  0  0  0  0
   21.3650    9.1280   24.3670 H   0  0  0  0  0  0  0  0  0  0  0  0
   19.7540    9.8760   24.2440 H   0  0  0  0  0  0  0  0  0  0  0  0
   22.4290    9.2570   20.4940 H   0  0  0  0  0  0  0  0  0  0  0  0
   21.9730   10.9720   20.3520 H   0  0  0  0  0  0  0  0  0  0  0  0
   23.9420   11.7710   22.5460 H   0  0  0  0  0  0  0  0  0  0  0  0
   22.2860   12.4210   22.4880 H   0  0  0  0  0  0  0  0  0  0  0  0
   23.1700   12.3650   24.8310 H   0  0  0  0  0  0  0  0  0  0  0  0
   23.3880   10.6040   24.6860 H   0  0  0  0  0  0  0  0  0  0  0  0
   21.0340   12.0860   30.7490 H   0  0  0  0  0  0  0  0  0  0  0  0
   20.6610   13.8150   30.9500 H   0  0  0  0  0  0  0  0  0  0  0  0
   19.4560   11.0590   28.6780 H   0  0  0  0  0  0  0  0  0  0  0  0
   21.2320   11.1690   28.6240 H   0  0  0  0  0  0  0  0  0  0  0  0
   20.6240   13.7790   28.2990 H   0  0  0  0  0  0  0  0  0  0  0  0
   19.1990   13.2660   29.2330 H   0  0  0  0  0  0  0  0  0  0  0  0
   20.7530   12.1120   24.4170 H   0  0  0  0  0  0  0  0  0  0  0  0
   21.8190   10.5120   26.6720 H   0  0  0  0  0  0  0  0  0  0  0  0
   22.9500    9.5970   22.7380 H   0  0  0  0  0  0  0  0  0  0  0  0
   27.6630   11.5400   19.3640 H   0  0  0  0  0  0  0  0  0  0  0  0
   25.7350   12.7640   18.4130 H   0  0  0  0  0  0  0  0  0  0  0  0
  1  2  1  0  0  0  0
  1  4  2  0  0  0  0
  1 21  1  0  0  0  0
  2 19  2  0  0  0  0
  2 22  1  0  0  0  0
  3  4  1  0  0  0  0
  3 20  2  0  0  0  0
  3 23  1  0  0  0  0
  4  7  1  0  0  0  0
  5  6  1  0  0  0  0
  5 18  1  0  0  0  0
  5 24  1  0  0  0  0
  5 25  1  0  0  0  0
  6 14  1  0  0  0  0
  6 26  1  0  0  0  0
  6 27  1  0  0  0  0
  7 18  1  0  0  0  0
  7 28  1  0  0  0  0
  7 29  1  0  0  0  0
  8  9  1  0  0  0  0
  8 18  1  0  0  0  0
  8 30  1  0  0  0  0
  8 31  1  0  0  0  0
  9 14  1  0  0  0  0
  9 32  1  0  0  0  0
  9 33  1  0  0  0  0
 10 12  1  0  0  0  0
 10 16  1  0  0  0  0
 10 34  1  0  0  0  0
 10 35  1  0  0  0  0
 11 12  1  0  0  0  0
 11 13  1  0  0  0  0
 11 36  1  0  0  0  0
 11 37  1  0  0  0  0
 12 38  1  0  0  0  0
 12 39  1  0  0  0  0
 13 15  2  0  0  0  0
 13 17  1  0  0  0  0
 14 17  1  0  0  0  0
 14 40  1  0  0  0  0
 17 41  1  0  0  0  0
 18 42  1  0  0  0  0
 19 20  1  0  0  0  0
 19 43  1  0  0  0  0
 20 44  1  0  0  0  0
M  CHG  1  16  -1
M  CHG  1  18   1
M  END
>  <PARENT_CMPD_ID>
2ZJH

>  <STANDARD_TYPE>
IC50

>  <RELATION>
=

>  <COMPOUND_KEY>
1

>  <PUBMED_ID>
19284778

>  <JOURNAL>
Biochemistry

>  <YEAR>
2009

>  <VOLUME>
48

>  <FIRST_PAGE>
4488

>  <Company>
Sunesis

>  <Resolution>
2.5999999

>  <idx>
229

>  <Model>
Test

>  <des_pred_mlr>
4.7665801

>  <RF_Canvas>
3.7918963

>  <DNN_Canvas>
3.2631931

>  <pred_CoMFA>
2.6882

>  <pred_COMSIA>
4.7754002

>  <pred_abm5>
4.2615705

>  <pred_ff8>
4.9463663

>  <pred_gau6>
3.9827638

>  <CID>
BACE_229

>  <RF_canvas>
0

>  <DNN_canvas>
0

$$$$
2ZJK_4488
  MOE2015           3D

 44 45  0  0  1  0  0  0  0  0999 V2000
   26.2000    9.8670   20.8220 C   0  0  0  0  0  0  0  0  0  0  0  0
   24.8470    9.5970   20.6230 C   0  0  0  0  0  0  0  0  0  0  0  0
   24.1730   10.2020   19.5640 C   0  0  0  0  0  0  0  0  0  0  0  0
   26.1990   11.3500   18.9090 C   0  0  0  0  0  0  0  0  0  0  0  0
   24.8840   17.9310   24.8470 C   0  0  0  0  0  0  0  0  0  0  0  0
   25.8700   16.9490   24.2240 C   0  0  0  0  0  0  0  0  0  0  0  0
   26.0760   15.7330   25.1220 C   0  0  0  0  0  0  0  0  0  0  0  0
   26.9510   13.8320   23.8760 C   0  0  0  0  0  0  0  0  0  0  0  0
   27.9010   12.2970   22.1840 C   0  0  0  0  0  0  0  0  0  0  0  0
   27.7600   13.7540   22.6080 C   0  0  3  0  0  0  0  0  0  0  0  0
   29.8510   12.8030   20.8780 C   0  0  0  0  0  0  0  0  0  0  0  0
   29.8270   14.2220   21.4600 C   0  0  0  0  0  0  0  0  0  0  0  0
   22.8670    9.9410   19.3760 F   0  0  0  0  0  0  0  0  0  0  0  0
   24.8460   11.0780   18.7060 C   0  0  0  0  0  0  0  0  0  0  0  0
   26.8770   10.7420   19.9660 C   0  0  0  0  0  0  0  0  0  0  0  0
   28.3430   11.0420   20.1950 C   0  0  0  0  0  0  0  0  0  0  0  0
   28.4620   12.3470   20.8400 N   0  3  3  0  0  0  0  0  0  0  0  0
   29.0940   14.3340   22.7160 N   0  3  0  0  0  0  0  0  0  0  0  0
   26.1420   12.9580   24.1590 O   0  0  0  0  0  0  0  0  0  0  0  0
   27.1600   14.8920   24.6540 N   0  0  0  0  0  0  0  0  0  0  0  0
   23.1900   17.3350   24.6080 S   0  5  0  0  0  0  0  0  0  0  0  0
   26.7270    9.3990   21.6400 H   0  0  0  0  0  0  0  0  0  0  0  0
   24.3240    8.9230   21.2860 H   0  0  0  0  0  0  0  0  0  0  0  0
   26.7200   12.0290   18.2500 H   0  0  0  0  0  0  0  0  0  0  0  0
   24.9950   18.9060   24.3720 H   0  0  0  0  0  0  0  0  0  0  0  0
   25.0890   18.0210   25.9140 H   0  0  0  0  0  0  0  0  0  0  0  0
   26.8270   17.4500   24.0780 H   0  0  0  0  0  0  0  0  0  0  0  0
   25.4820   16.6180   23.2600 H   0  0  0  0  0  0  0  0  0  0  0  0
   25.1570   15.1470   25.1380 H   0  0  0  0  0  0  0  0  0  0  0  0
   26.3060   16.0750   26.1310 H   0  0  0  0  0  0  0  0  0  0  0  0
   26.9280   11.8050   22.1750 H   0  0  0  0  0  0  0  0  0  0  0  0
   28.5710   11.7650   22.8590 H   0  0  0  0  0  0  0  0  0  0  0  0
   27.2150   14.3410   21.8690 H   0  0  0  0  0  0  0  0  0  0  0  0
   30.4460   12.1460   21.5120 H   0  0  0  0  0  0  0  0  0  0  0  0
   30.2710   12.8150   19.8720 H   0  0  0  0  0  0  0  0  0  0  0  0
   29.3610   14.8840   20.7300 H   0  0  0  0  0  0  0  0  0  0  0  0
   30.8550   14.5390   21.6330 H   0  0  0  0  0  0  0  0  0  0  0  0
   24.3180   11.5440   17.8870 H   0  0  0  0  0  0  0  0  0  0  0  0
   28.8670   11.0570   19.2400 H   0  0  0  0  0  0  0  0  0  0  0  0
   28.7780   10.2750   20.8360 H   0  0  0  0  0  0  0  0  0  0  0  0
   27.9390   13.0140   20.2910 H   0  0  0  0  0  0  0  0  0  0  0  0
   29.6060   13.8490   23.4390 H   0  0  0  0  0  0  0  0  0  0  0  0
   29.0090   15.3100   22.9610 H   0  0  0  0  0  0  0  0  0  0  0  0
   28.1060   15.1180   24.9270 H   0  0  0  0  0  0  0  0  0  0  0  0
  1  2  1  0  0  0  0
  1 15  2  0  0  0  0
  1 22  1  0  0  0  0
  2  3  2  0  0  0  0
  2 23  1  0  0  0  0
  3 13  1  0  0  0  0
  3 14  1  0  0  0  0
  4 14  2  0  0  0  0
  4 15  1  0  0  0  0
  4 24  1  0  0  0  0
  5  6  1  0  0  0  0
  5 21  1  0  0  0  0
  5 25  1  0  0  0  0
  5 26  1  0  0  0  0
  6  7  1  0  0  0  0
  6 27  1  0  0  0  0
  6 28  1  0  0  0  0
  7 20  1  0  0  0  0
  7 29  1  0  0  0  0
  7 30  1  0  0  0  0
  8 10  1  0  0  0  0
  8 19  2  0  0  0  0
  8 20  1  0  0  0  0
  9 10  1  0  0  0  0
  9 17  1  0  0  0  0
  9 31  1  0  0  0  0
  9 32  1  0  0  0  0
 10 18  1  0  0  0  0
 10 33  1  0  0  0  0
 11 12  1  0  0  0  0
 11 17  1  0  0  0  0
 11 34  1  0  0  0  0
 11 35  1  0  0  0  0
 12 18  1  0  0  0  0
 12 36  1  0  0  0  0
 12 37  1  0  0  0  0
 14 38  1  0  0  0  0
 15 16  1  0  0  0  0
 16 17  1  0  0  0  0
 16 39  1  0  0  0  0
 16 40  1  0  0  0  0
 17 41  1  0  0  0  0
 18 42  1  0  0  0  0
 18 43  1  0  0  0  0
 20 44  1  0  0  0  0
M  CHG  1  17   1
M  CHG  1  18   1
M  CHG  1  21  -1
M  END
>  <PARENT_CMPD_ID>
2ZJK

>  <STANDARD_TYPE>
IC50

>  <RELATION>
=

>  <COMPOUND_KEY>
3

>  <PUBMED_ID>
19284778

>  <JOURNAL>
Biochemistry

>  <YEAR>
2009

>  <VOLUME>
48

>  <FIRST_PAGE>
4488

>  <Company>
Sunesis

>  <Resolution>
3

>  <idx>
230

>  <Model>
Test

>  <des_pred_mlr>
5.0915599

>  <RF_Canvas>
3.8738871

>  <DNN_Canvas>
4.0756192

>  <pred_CoMFA>
4.0637999

>  <pred_COMSIA>
4.6392999

>  <pred_abm5>
4.3178062

>  <pred_ff8>
7.125237

>  <pred_gau6>
4.143405

>  <CID>
BACE_230

>  <RF_canvas>
0

>  <DNN_canvas>
0

$$$$
1XN2_105
  MOE2015           3D

184188  0  0  1  0  0  0  0  0999 V2000
   39.0860   20.8250   17.3610 N   0  3  0  0  0  0  0  0  0  0  0  0
   38.6310   19.7110   16.4900 C   0  0  3  0  0  0  0  0  0  0  0  0
   37.8000   18.7540   17.3380 C   0  0  0  0  0  0  0  0  0  0  0  0
   36.9760   17.9950   16.8220 O   0  0  0  0  0  0  0  0  0  0  0  0
   39.8410   18.9570   15.9400 C   0  0  0  0  0  0  0  0  0  0  0  0
   39.4850   17.7400   15.1240 C   0  0  0  0  0  0  0  0  0  0  0  0
   40.1600   16.5460   15.0920 C   0  0  0  0  0  0  0  0  0  0  0  0
   38.4090   17.6160   14.1790 C   0  0  0  0  0  0  0  0  0  0  0  0
   39.5740   15.6910   14.1860 N   0  0  0  0  0  0  0  0  0  0  0  0
   38.4990   16.3190   13.6110 C   0  0  0  0  0  0  0  0  0  0  0  0
   37.3800   18.4750   13.7550 C   0  0  0  0  0  0  0  0  0  0  0  0
   37.5940   15.8580   12.6360 C   0  0  0  0  0  0  0  0  0  0  0  0
   36.4790   18.0140   12.7860 C   0  0  0  0  0  0  0  0  0  0  0  0
   36.5970   16.7170   12.2390 C   0  0  0  0  0  0  0  0  0  0  0  0
   38.0170   18.8180   18.6470 N   0  0  0  0  0  0  0  0  0  0  0  0
   37.3420   17.9260   19.5720 C   0  0  3  0  0  0  0  0  0  0  0  0
   35.8220   17.8130   19.5190 C   0  0  0  0  0  0  0  0  0  0  0  0
   35.0680   18.7320   19.8560 O   0  0  0  0  0  0  0  0  0  0  0  0
   37.7970   18.2080   21.0040 C   0  0  0  0  0  0  0  0  0  0  0  0
   37.3520   19.4940   21.6040 C   0  0  0  0  0  0  0  0  0  0  0  0
   36.1540   19.7450   22.2180 C   0  0  0  0  0  0  0  0  0  0  0  0
   38.1440   20.6730   21.7720 C   0  0  0  0  0  0  0  0  0  0  0  0
   36.1570   21.0010   22.7710 N   0  0  0  0  0  0  0  0  0  0  0  0
   37.3650   21.5960   22.5120 C   0  0  0  0  0  0  0  0  0  0  0  0
   39.4400   21.0400   21.3710 C   0  0  0  0  0  0  0  0  0  0  0  0
   37.8420   22.8700   22.8670 C   0  0  0  0  0  0  0  0  0  0  0  0
   39.9150   22.3070   21.7230 C   0  0  0  0  0  0  0  0  0  0  0  0
   39.1140   23.2050   22.4650 C   0  0  0  0  0  0  0  0  0  0  0  0
   35.3950   16.6380   19.0780 N   0  0  0  0  0  0  0  0  0  0  0  0
   33.9930   16.2880   18.9760 C   0  0  3  0  0  0  0  0  0  0  0  0
   33.5250   15.9340   20.3810 C   0  0  0  0  0  0  0  0  0  0  0  0
   34.3270   15.8100   21.2930 O   0  0  0  0  0  0  0  0  0  0  0  0
   33.8530   15.0700   18.0500 C   0  0  0  0  0  0  0  0  0  0  0  0
   32.6750   14.3370   18.3240 O   0  0  0  0  0  0  0  0  0  0  0  0
   32.2210   15.7690   20.5420 N   0  0  0  0  0  0  0  0  0  0  0  0
   31.6400   15.3950   21.8130 C   0  0  3  0  0  0  0  0  0  0  0  0
   30.2420   14.8580   21.5280 C   0  0  0  0  0  0  0  0  0  0  0  0
   29.4800   15.4920   20.8050 O   0  0  0  0  0  0  0  0  0  0  0  0
   31.5410   16.6090   22.7080 C   0  0  0  0  0  0  0  0  0  0  0  0
   31.1570   16.2930   24.1270 C   0  0  0  0  0  0  0  0  0  0  0  0
   30.9660   17.5590   24.9590 C   0  0  0  0  0  0  0  0  0  0  0  0
   31.8680   18.4470   24.9030 O   0  0  0  0  0  0  0  0  0  0  0  0
   29.9210   17.6520   25.6590 O   0  5  0  0  0  0  0  0  0  0  0  0
   29.9010   13.6870   22.0600 N   0  0  0  0  0  0  0  0  0  0  0  0
   28.5590   13.1600   21.8280 C   0  0  3  0  0  0  0  0  0  0  0  0
   27.7160   13.3630   23.0670 C   0  0  0  0  0  0  0  0  0  0  0  0
   28.2110   13.3060   24.1850 O   0  0  0  0  0  0  0  0  0  0  0  0
   28.5530   11.6500   21.4700 C   0  0  0  0  0  0  0  0  0  0  0  0
   28.8640   11.4710   20.0020 C   0  0  0  0  0  0  0  0  0  0  0  0
   29.5690   10.8990   22.3240 C   0  0  0  0  0  0  0  0  0  0  0  0
   26.4290   13.6260   22.8620 N   0  0  0  0  0  0  0  0  0  0  0  0
   25.5080   13.8270   23.9680 C   0  0  3  0  0  0  0  0  0  0  0  0
   24.2100   13.2280   23.4620 C   0  0  0  0  0  0  0  0  0  0  0  0
   23.2580   13.9540   23.1680 O   0  0  0  0  0  0  0  0  0  0  0  0
   25.3490   15.3300   24.2590 C   0  0  0  0  0  0  0  0  0  0  0  0
   26.5030   15.8830   25.1010 C   0  0  0  0  0  0  0  0  0  0  0  0
   26.5760   15.6110   26.2960 O   0  0  0  0  0  0  0  0  0  0  0  0
   27.4280   16.6130   24.4680 N   0  0  0  0  0  0  0  0  0  0  0  0
   24.8340   10.0110   19.6240 C   0  0  0  0  0  0  0  0  0  0  0  0
   23.0900   11.8110   19.7460 C   0  0  0  0  0  0  0  0  0  0  0  0
   24.1180   11.0010   20.5410 C   0  0  0  0  0  0  0  0  0  0  0  0
   23.4360   10.2510   21.7030 C   0  0  0  0  0  0  0  0  0  0  0  0
   24.1840   11.9010   23.3540 N   0  0  0  0  0  0  0  0  0  0  0  0
   23.0180   11.1950   22.8510 C   0  0  3  0  0  0  0  0  0  0  0  0
   22.2890   10.4480   23.9550 C   0  0  3  0  0  0  0  0  0  0  0  0
   23.1210    9.4060   24.5000 O   0  0  0  0  0  0  0  0  0  0  0  0
   21.9060   11.4170   25.0630 C   0  0  0  0  0  0  0  0  0  0  0  0
   20.6870   10.9760   25.8640 C   0  0  3  0  0  0  0  0  0  0  0  0
   20.7510   11.5700   27.2750 C   0  0  0  0  0  0  0  0  0  0  0  0
   19.4220   11.4640   25.1470 C   0  0  0  0  0  0  0  0  0  0  0  0
   19.3530   12.6130   24.7280 O   0  0  0  0  0  0  0  0  0  0  0  0
   18.4410   10.5840   24.9880 N   0  0  0  0  0  0  0  0  0  0  0  0
   17.1910   11.0000   24.3510 C   0  0  3  0  0  0  0  0  0  0  0  0
   16.4520   11.9920   25.2480 C   0  0  0  0  0  0  0  0  0  0  0  0
   16.4930   11.8760   26.4790 O   0  0  0  0  0  0  0  0  0  0  0  0
   16.2940    9.7820   24.0840 C   0  0  0  0  0  0  0  0  0  0  0  0
   15.8010   12.9810   24.6330 N   0  0  0  0  0  0  0  0  0  0  0  0
   15.0120   13.9550   25.3920 C   0  0  3  0  0  0  0  0  0  0  0  0
   13.6680   13.2770   25.6350 C   0  0  0  0  0  0  0  0  0  0  0  0
   13.1640   12.5760   24.7540 O   0  0  0  0  0  0  0  0  0  0  0  0
   14.8250   15.2470   24.5930 C   0  0  0  0  0  0  0  0  0  0  0  0
   16.1460   15.8770   24.1460 C   0  0  0  0  0  0  0  0  0  0  0  0
   16.0800   17.3980   23.9800 C   0  0  0  0  0  0  0  0  0  0  0  0
   15.2690   17.8890   23.1620 O   0  0  0  0  0  0  0  0  0  0  0  0
   16.8540   18.1040   24.6740 O   0  5  0  0  0  0  0  0  0  0  0  0
   13.0970   13.4560   26.8250 N   0  0  0  0  0  0  0  0  0  0  0  0
   11.8070   12.8320   27.1530 C   0  0  3  0  0  0  0  0  0  0  0  0
   10.9260   13.6900   28.0660 C   0  0  0  0  0  0  0  0  0  0  0  0
    9.7910   14.0140   27.6450 O   0  0  0  0  0  0  0  0  0  0  0  0
   12.0260   11.4780   27.8300 C   0  0  0  0  0  0  0  0  0  0  0  0
   10.7590   10.8390   28.3500 C   0  0  0  0  0  0  0  0  0  0  0  0
    9.9480   10.0840   27.5120 C   0  0  0  0  0  0  0  0  0  0  0  0
   10.3970   10.9670   29.6890 C   0  0  0  0  0  0  0  0  0  0  0  0
    8.7990    9.4600   28.0000 C   0  0  0  0  0  0  0  0  0  0  0  0
    9.2500   10.3490   30.1880 C   0  0  0  0  0  0  0  0  0  0  0  0
    8.4510    9.5910   29.3400 C   0  0  0  0  0  0  0  0  0  0  0  0
   11.3700   14.0010   29.2000 O   0  5  0  0  0  0  0  0  0  0  0  0
   38.2830   21.3200   17.7220 H   0  0  0  0  0  0  0  0  0  0  0  0
   39.6590   21.4600   16.8240 H   0  0  0  0  0  0  0  0  0  0  0  0
   39.6250   20.4530   18.1300 H   0  0  0  0  0  0  0  0  0  0  0  0
   38.0440   20.1050   15.6600 H   0  0  0  0  0  0  0  0  0  0  0  0
   40.4570   18.6380   16.7800 H   0  0  0  0  0  0  0  0  0  0  0  0
   40.4120   19.6380   15.3090 H   0  0  0  0  0  0  0  0  0  0  0  0
   41.0270   16.3110   15.6920 H   0  0  0  0  0  0  0  0  0  0  0  0
   39.8850   14.7530   13.9780 H   0  0  0  0  0  0  0  0  0  0  0  0
   37.2860   19.4690   14.1670 H   0  0  0  0  0  0  0  0  0  0  0  0
   37.6800   14.8670   12.2160 H   0  0  0  0  0  0  0  0  0  0  0  0
   35.6810   18.6610   12.4520 H   0  0  0  0  0  0  0  0  0  0  0  0
   35.8880   16.3930   11.4920 H   0  0  0  0  0  0  0  0  0  0  0  0
   38.6660   19.5030   19.0070 H   0  0  0  0  0  0  0  0  0  0  0  0
   37.6580   16.9460   19.2140 H   0  0  0  0  0  0  0  0  0  0  0  0
   38.8870   18.1990   21.0120 H   0  0  0  0  0  0  0  0  0  0  0  0
   37.4220   17.4020   21.6350 H   0  0  0  0  0  0  0  0  0  0  0  0
   35.3250   19.0540   22.2610 H   0  0  0  0  0  0  0  0  0  0  0  0
   35.3940   21.4190   23.2850 H   0  0  0  0  0  0  0  0  0  0  0  0
   40.0560   20.3580   20.8030 H   0  0  0  0  0  0  0  0  0  0  0  0
   37.2330   23.5590   23.4330 H   0  0  0  0  0  0  0  0  0  0  0  0
   40.9090   22.6040   21.4230 H   0  0  0  0  0  0  0  0  0  0  0  0
   39.5100   24.1760   22.7220 H   0  0  0  0  0  0  0  0  0  0  0  0
   36.0820   15.9520   18.7990 H   0  0  0  0  0  0  0  0  0  0  0  0
   33.3990   17.1060   18.5680 H   0  0  0  0  0  0  0  0  0  0  0  0
   34.7150   14.4180   18.1910 H   0  0  0  0  0  0  0  0  0  0  0  0
   33.8230   15.4140   17.0160 H   0  0  0  0  0  0  0  0  0  0  0  0
   32.7210   14.0440   19.2370 H   0  0  0  0  0  0  0  0  0  0  0  0
   31.6110   15.9090   19.7500 H   0  0  0  0  0  0  0  0  0  0  0  0
   32.2540   14.6460   22.3130 H   0  0  0  0  0  0  0  0  0  0  0  0
   30.7910   17.2820   22.2920 H   0  0  0  0  0  0  0  0  0  0  0  0
   32.5100   17.1070   22.7180 H   0  0  0  0  0  0  0  0  0  0  0  0
   31.9440   15.6890   24.5790 H   0  0  0  0  0  0  0  0  0  0  0  0
   30.2240   15.7300   24.1230 H   0  0  0  0  0  0  0  0  0  0  0  0
   30.5630   13.1680   22.6180 H   0  0  0  0  0  0  0  0  0  0  0  0
   28.1510   13.7050   20.9760 H   0  0  0  0  0  0  0  0  0  0  0  0
   27.5640   11.2410   21.6740 H   0  0  0  0  0  0  0  0  0  0  0  0
   29.8520   11.8770   19.7880 H   0  0  0  0  0  0  0  0  0  0  0  0
   28.1180   11.9970   19.4060 H   0  0  0  0  0  0  0  0  0  0  0  0
   28.8460   10.4100   19.7530 H   0  0  0  0  0  0  0  0  0  0  0  0
   30.5670   11.2940   22.1340 H   0  0  0  0  0  0  0  0  0  0  0  0
   29.5440    9.8390   22.0710 H   0  0  0  0  0  0  0  0  0  0  0  0
   29.3230   11.0270   23.3780 H   0  0  0  0  0  0  0  0  0  0  0  0
   26.0830   13.6880   21.9150 H   0  0  0  0  0  0  0  0  0  0  0  0
   25.8430   13.3710   24.9000 H   0  0  0  0  0  0  0  0  0  0  0  0
   24.4150   15.4860   24.7990 H   0  0  0  0  0  0  0  0  0  0  0  0
   25.3160   15.8690   23.3120 H   0  0  0  0  0  0  0  0  0  0  0  0
   28.2280   16.9650   24.9750 H   0  0  0  0  0  0  0  0  0  0  0  0
   27.3270   16.8120   23.4830 H   0  0  0  0  0  0  0  0  0  0  0  0
   25.3120   10.5520   18.8070 H   0  0  0  0  0  0  0  0  0  0  0  0
   24.1110    9.3040   19.2170 H   0  0  0  0  0  0  0  0  0  0  0  0
   25.5900    9.4700   20.1930 H   0  0  0  0  0  0  0  0  0  0  0  0
   23.5910   12.3330   18.9310 H   0  0  0  0  0  0  0  0  0  0  0  0
   22.6130   12.5380   20.4040 H   0  0  0  0  0  0  0  0  0  0  0  0
   22.3350   11.1390   19.3380 H   0  0  0  0  0  0  0  0  0  0  0  0
   24.8520   11.6900   20.9580 H   0  0  0  0  0  0  0  0  0  0  0  0
   24.1310    9.5090   22.0960 H   0  0  0  0  0  0  0  0  0  0  0  0
   22.5470    9.7500   21.3210 H   0  0  0  0  0  0  0  0  0  0  0  0
   24.9980   11.3700   23.6300 H   0  0  0  0  0  0  0  0  0  0  0  0
   22.3130   11.9280   22.4600 H   0  0  0  0  0  0  0  0  0  0  0  0
   21.3920    9.9960   23.5320 H   0  0  0  0  0  0  0  0  0  0  0  0
   23.9040    9.8220   24.8670 H   0  0  0  0  0  0  0  0  0  0  0  0
   21.6910   12.3870   24.6140 H   0  0  0  0  0  0  0  0  0  0  0  0
   22.7510   11.5120   25.7450 H   0  0  0  0  0  0  0  0  0  0  0  0
   20.6680    9.8890   25.9430 H   0  0  0  0  0  0  0  0  0  0  0  0
   20.7700   12.6580   27.2110 H   0  0  0  0  0  0  0  0  0  0  0  0
   21.6530   11.2200   27.7760 H   0  0  0  0  0  0  0  0  0  0  0  0
   19.8750   11.2550   27.8420 H   0  0  0  0  0  0  0  0  0  0  0  0
   18.5570    9.6320   25.3050 H   0  0  0  0  0  0  0  0  0  0  0  0
   17.4300   11.4790   23.4010 H   0  0  0  0  0  0  0  0  0  0  0  0
   16.0500    9.2960   25.0290 H   0  0  0  0  0  0  0  0  0  0  0  0
   16.8200    9.0780   23.4390 H   0  0  0  0  0  0  0  0  0  0  0  0
   15.3760   10.1070   23.5950 H   0  0  0  0  0  0  0  0  0  0  0  0
   15.8530   13.0600   23.6270 H   0  0  0  0  0  0  0  0  0  0  0  0
   15.5040   14.2350   26.3230 H   0  0  0  0  0  0  0  0  0  0  0  0
   14.2920   15.9650   25.2160 H   0  0  0  0  0  0  0  0  0  0  0  0
   14.2310   15.0230   23.7070 H   0  0  0  0  0  0  0  0  0  0  0  0
   16.4290   15.4390   23.1890 H   0  0  0  0  0  0  0  0  0  0  0  0
   16.9070   15.6450   24.8910 H   0  0  0  0  0  0  0  0  0  0  0  0
   13.5590   14.0310   27.5150 H   0  0  0  0  0  0  0  0  0  0  0  0
   11.2870   12.7160   26.2020 H   0  0  0  0  0  0  0  0  0  0  0  0
   12.7070   11.6200   28.6690 H   0  0  0  0  0  0  0  0  0  0  0  0
   12.4790   10.8010   27.1050 H   0  0  0  0  0  0  0  0  0  0  0  0
   10.2100    9.9790   26.4700 H   0  0  0  0  0  0  0  0  0  0  0  0
   11.0150   11.5550   30.3520 H   0  0  0  0  0  0  0  0  0  0  0  0
    8.1800    8.8750   27.3360 H   0  0  0  0  0  0  0  0  0  0  0  0
    8.9840   10.4590   31.2290 H   0  0  0  0  0  0  0  0  0  0  0  0
    7.5640    9.1060   29.7200 H   0  0  0  0  0  0  0  0  0  0  0  0
  1  2  1  0  0  0  0
  1 98  1  0  0  0  0
  1 99  1  0  0  0  0
  1100  1  0  0  0  0
  2  3  1  0  0  0  0
  2  5  1  0  0  0  0
  2101  1  0  0  0  0
  3  4  2  0  0  0  0
  3 15  1  0  0  0  0
  5  6  1  0  0  0  0
  5102  1  0  0  0  0
  5103  1  0  0  0  0
  6  7  2  0  0  0  0
  6  8  1  0  0  0  0
  7  9  1  0  0  0  0
  7104  1  0  0  0  0
  8 10  2  0  0  0  0
  8 11  1  0  0  0  0
  9 10  1  0  0  0  0
  9105  1  0  0  0  0
 10 12  1  0  0  0  0
 11 13  2  0  0  0  0
 11106  1  0  0  0  0
 12 14  2  0  0  0  0
 12107  1  0  0  0  0
 13 14  1  0  0  0  0
 13108  1  0  0  0  0
 14109  1  0  0  0  0
 15 16  1  0  0  0  0
 15110  1  0  0  0  0
 16 17  1  0  0  0  0
 16 19  1  0  0  0  0
 16111  1  0  0  0  0
 17 18  2  0  0  0  0
 17 29  1  0  0  0  0
 19 20  1  0  0  0  0
 19112  1  0  0  0  0
 19113  1  0  0  0  0
 20 21  2  0  0  0  0
 20 22  1  0  0  0  0
 21 23  1  0  0  0  0
 21114  1  0  0  0  0
 22 24  2  0  0  0  0
 22 25  1  0  0  0  0
 23 24  1  0  0  0  0
 23115  1  0  0  0  0
 24 26  1  0  0  0  0
 25 27  2  0  0  0  0
 25116  1  0  0  0  0
 26 28  2  0  0  0  0
 26117  1  0  0  0  0
 27 28  1  0  0  0  0
 27118  1  0  0  0  0
 28119  1  0  0  0  0
 29 30  1  0  0  0  0
 29120  1  0  0  0  0
 30 31  1  0  0  0  0
 30 33  1  0  0  0  0
 30121  1  0  0  0  0
 31 32  2  0  0  0  0
 31 35  1  0  0  0  0
 33 34  1  0  0  0  0
 33122  1  0  0  0  0
 33123  1  0  0  0  0
 34124  1  0  0  0  0
 35 36  1  0  0  0  0
 35125  1  0  0  0  0
 36 37  1  0  0  0  0
 36 39  1  0  0  0  0
 36126  1  0  0  0  0
 37 38  2  0  0  0  0
 37 44  1  0  0  0  0
 39 40  1  0  0  0  0
 39127  1  0  0  0  0
 39128  1  0  0  0  0
 40 41  1  0  0  0  0
 40129  1  0  0  0  0
 40130  1  0  0  0  0
 41 42  2  0  0  0  0
 41 43  1  0  0  0  0
 44 45  1  0  0  0  0
 44131  1  0  0  0  0
 45 46  1  0  0  0  0
 45 48  1  0  0  0  0
 45132  1  0  0  0  0
 46 47  2  0  0  0  0
 46 51  1  0  0  0  0
 48 49  1  0  0  0  0
 48 50  1  0  0  0  0
 48133  1  0  0  0  0
 49134  1  0  0  0  0
 49135  1  0  0  0  0
 49136  1  0  0  0  0
 50137  1  0  0  0  0
 50138  1  0  0  0  0
 50139  1  0  0  0  0
 51 52  1  0  0  0  0
 51140  1  0  0  0  0
 52 53  1  0  0  0  0
 52 55  1  0  0  0  0
 52141  1  0  0  0  0
 53 54  2  0  0  0  0
 53 63  1  0  0  0  0
 55 56  1  0  0  0  0
 55142  1  0  0  0  0
 55143  1  0  0  0  0
 56 57  2  0  0  0  0
 56 58  1  0  0  0  0
 58144  1  0  0  0  0
 58145  1  0  0  0  0
 59 61  1  0  0  0  0
 59146  1  0  0  0  0
 59147  1  0  0  0  0
 59148  1  0  0  0  0
 60 61  1  0  0  0  0
 60149  1  0  0  0  0
 60150  1  0  0  0  0
 60151  1  0  0  0  0
 61 62  1  0  0  0  0
 61152  1  0  0  0  0
 62 64  1  0  0  0  0
 62153  1  0  0  0  0
 62154  1  0  0  0  0
 63 64  1  0  0  0  0
 63155  1  0  0  0  0
 64 65  1  0  0  0  0
 64156  1  0  0  0  0
 65 66  1  0  0  0  0
 65 67  1  0  0  0  0
 65157  1  0  0  0  0
 66158  1  0  0  0  0
 67 68  1  0  0  0  0
 67159  1  0  0  0  0
 67160  1  0  0  0  0
 68 69  1  0  0  0  0
 68 70  1  0  0  0  0
 68161  1  0  0  0  0
 69162  1  0  0  0  0
 69163  1  0  0  0  0
 69164  1  0  0  0  0
 70 71  2  0  0  0  0
 70 72  1  0  0  0  0
 72 73  1  0  0  0  0
 72165  1  0  0  0  0
 73 74  1  0  0  0  0
 73 76  1  0  0  0  0
 73166  1  0  0  0  0
 74 75  2  0  0  0  0
 74 77  1  0  0  0  0
 76167  1  0  0  0  0
 76168  1  0  0  0  0
 76169  1  0  0  0  0
 77 78  1  0  0  0  0
 77170  1  0  0  0  0
 78 79  1  0  0  0  0
 78 81  1  0  0  0  0
 78171  1  0  0  0  0
 79 80  2  0  0  0  0
 79 86  1  0  0  0  0
 81 82  1  0  0  0  0
 81172  1  0  0  0  0
 81173  1  0  0  0  0
 82 83  1  0  0  0  0
 82174  1  0  0  0  0
 82175  1  0  0  0  0
 83 84  2  0  0  0  0
 83 85  1  0  0  0  0
 86 87  1  0  0  0  0
 86176  1  0  0  0  0
 87 88  1  0  0  0  0
 87 90  1  0  0  0  0
 87177  1  0  0  0  0
 88 89  2  0  0  0  0
 88 97  1  0  0  0  0
 90 91  1  0  0  0  0
 90178  1  0  0  0  0
 90179  1  0  0  0  0
 91 92  2  0  0  0  0
 91 93  1  0  0  0  0
 92 94  1  0  0  0  0
 92180  1  0  0  0  0
 93 95  2  0  0  0  0
 93181  1  0  0  0  0
 94 96  2  0  0  0  0
 94182  1  0  0  0  0
 95 96  1  0  0  0  0
 95183  1  0  0  0  0
 96184  1  0  0  0  0
M  CHG  1   1   1
M  CHG  1  43  -1
M  CHG  1  85  -1
M  CHG  1  97  -1
M  END
>  <PARENT_CMPD_ID>
1XN2

>  <STANDARD_TYPE>
Ki

>  <RELATION>
=

>  <STANDARD_VALUE>
2.9999999e-005

>  <STANDARD_UNITS>
uM

>  <COMPOUND_KEY>
OM03-4

>  <PUBMED_ID>
15628850

>  <JOURNAL>
Biochemistry

>  <YEAR>
2005

>  <VOLUME>
44

>  <FIRST_PAGE>
105

>  <Company>
OMRF

>  <Resolution>
1.9

>  <idx>
231

>  <Model>
Test

>  <target>
10.522879

>  <des_pred_mlr>
10.291

>  <RF_Canvas>
7.2849598

>  <DNN_Canvas>
7.6673002

>  <pred_CoMFA>
7.296

>  <pred_COMSIA>
6.5489998

>  <pred_abm5>
6.6736107

>  <pred_ff8>
8.6315203

>  <pred_gau6>
7.5022049

>  <CID>
BACE_231

>  <RF_canvas>
0

>  <DNN_canvas>
1

$$$$
2G94_5310
  MOE2015           3D

 99 99  0  0  1  0  0  0  0  0999 V2000
   29.2410    8.9530   21.9300 C   0  0  0  0  0  0  0  0  0  0  0  0
   30.1430    9.1560   23.1150 C   0  0  0  0  0  0  0  0  0  0  0  0
   30.3860   10.5640   23.1170 N   0  0  0  0  0  0  0  0  0  0  0  0
   29.6580   11.2230   22.0210 N   0  0  0  0  0  0  0  0  0  0  0  0
   28.9780   10.1370   21.3200 C   0  0  0  0  0  0  0  0  0  0  0  0
   30.7370    8.2450   24.1060 C   0  0  0  0  0  0  0  0  0  0  0  0
   29.5660   12.6510   21.5880 C   0  0  0  0  0  0  0  0  0  0  0  0
   28.2600   13.2210   21.6840 O   0  0  0  0  0  0  0  0  0  0  0  0
   27.7000   13.3970   22.9250 C   0  0  0  0  0  0  0  0  0  0  0  0
   28.1030   10.2460   20.0950 C   0  0  0  0  0  0  0  0  0  0  0  0
   28.3110   13.2540   23.9810 O   0  0  0  0  0  0  0  0  0  0  0  0
   26.3970   13.7480   22.8880 N   0  0  0  0  0  0  0  0  0  0  0  0
   25.4750   14.0090   23.9860 C   0  0  3  0  0  0  0  0  0  0  0  0
   25.3040   15.5460   24.1120 C   0  0  0  0  0  0  0  0  0  0  0  0
   26.4660   16.3810   25.1590 S   0  0  0  0  0  0  0  0  0  0  0  0
   25.8610   17.6320   25.5430 O   0  0  0  0  0  0  0  0  0  0  0  0
   26.8320   15.5020   26.2700 O   0  0  0  0  0  0  0  0  0  0  0  0
   27.8410   16.6610   24.0620 C   0  0  0  0  0  0  0  0  0  0  0  0
   24.2040   13.3710   23.5290 C   0  0  0  0  0  0  0  0  0  0  0  0
   23.1960   14.0250   23.2830 O   0  0  0  0  0  0  0  0  0  0  0  0
   24.2580   11.9960   23.3900 N   0  0  0  0  0  0  0  0  0  0  0  0
   23.0630   11.2440   22.9120 C   0  0  3  0  0  0  0  0  0  0  0  0
   22.2740   10.4890   24.0190 C   0  0  3  0  0  0  0  0  0  0  0  0
   23.4860   10.2690   21.7620 C   0  0  0  0  0  0  0  0  0  0  0  0
   24.0470   11.0120   20.5030 C   0  0  0  0  0  0  0  0  0  0  0  0
   23.0050   11.9430   19.8530 C   0  0  0  0  0  0  0  0  0  0  0  0
   24.4970    9.9760   19.4590 C   0  0  0  0  0  0  0  0  0  0  0  0
   21.9020   11.4350   25.1770 C   0  0  0  0  0  0  0  0  0  0  0  0
   20.5840   11.0100   25.8290 C   0  0  3  0  0  0  0  0  0  0  0  0
   20.5140   11.5750   27.2520 C   0  0  0  0  0  0  0  0  0  0  0  0
   19.3860   11.5510   25.0420 C   0  0  0  0  0  0  0  0  0  0  0  0
   23.0770    9.4420   24.5570 O   0  0  0  0  0  0  0  0  0  0  0  0
   19.3810   12.6630   24.5370 O   0  0  0  0  0  0  0  0  0  0  0  0
   18.3130   10.7010   24.9610 N   0  0  0  0  0  0  0  0  0  0  0  0
   17.0870   11.1150   24.2530 C   0  0  3  0  0  0  0  0  0  0  0  0
   16.1770    9.9080   23.9030 C   0  0  0  0  0  0  0  0  0  0  0  0
   15.0210   10.3360   22.9750 C   0  0  0  0  0  0  0  0  0  0  0  0
   15.5970    9.2760   25.1670 C   0  0  0  0  0  0  0  0  0  0  0  0
   16.3910   12.1830   25.1520 C   0  0  0  0  0  0  0  0  0  0  0  0
   16.4730   12.1320   26.3580 O   0  0  0  0  0  0  0  0  0  0  0  0
   15.6880   13.1670   24.4690 N   0  0  0  0  0  0  0  0  0  0  0  0
   14.9590   14.2520   25.1670 C   0  0  0  0  0  0  0  0  0  0  0  0
   15.6480   15.6450   24.9870 C   0  0  0  0  0  0  0  0  0  0  0  0
   17.0210   15.6770   25.6660 C   0  0  0  0  0  0  0  0  0  0  0  0
   15.8340   15.9600   23.5060 C   0  0  0  0  0  0  0  0  0  0  0  0
   28.8550    7.9970   21.6080 H   0  0  0  0  0  0  0  0  0  0  0  0
   31.7040    7.8960   23.7450 H   0  0  0  0  0  0  0  0  0  0  0  0
   30.0760    7.3920   24.2570 H   0  0  0  0  0  0  0  0  0  0  0  0
   30.8710    8.7730   25.0500 H   0  0  0  0  0  0  0  0  0  0  0  0
   29.8870   12.7120   20.5480 H   0  0  0  0  0  0  0  0  0  0  0  0
   30.2400   13.2390   22.2110 H   0  0  0  0  0  0  0  0  0  0  0  0
   28.0380   11.2890   19.7870 H   0  0  0  0  0  0  0  0  0  0  0  0
   27.1050    9.8730   20.3270 H   0  0  0  0  0  0  0  0  0  0  0  0
   28.5340    9.6540   19.2870 H   0  0  0  0  0  0  0  0  0  0  0  0
   26.0030   13.8440   21.9630 H   0  0  0  0  0  0  0  0  0  0  0  0
   25.8000   13.6280   24.9540 H   0  0  0  0  0  0  0  0  0  0  0  0
   24.3050   15.7380   24.5040 H   0  0  0  0  0  0  0  0  0  0  0  0
   25.3900   15.9730   23.1130 H   0  0  0  0  0  0  0  0  0  0  0  0
   27.5300   17.3180   23.2500 H   0  0  0  0  0  0  0  0  0  0  0  0
   28.1770   15.7090   23.6510 H   0  0  0  0  0  0  0  0  0  0  0  0
   28.6570   17.1270   24.6140 H   0  0  0  0  0  0  0  0  0  0  0  0
   25.1090   11.5000   23.6130 H   0  0  0  0  0  0  0  0  0  0  0  0
   22.3630   11.9930   22.5420 H   0  0  0  0  0  0  0  0  0  0  0  0
   21.3680   10.0900   23.5630 H   0  0  0  0  0  0  0  0  0  0  0  0
   22.6140    9.6870   21.4620 H   0  0  0  0  0  0  0  0  0  0  0  0
   24.2570    9.5990   22.1420 H   0  0  0  0  0  0  0  0  0  0  0  0
   24.8840   11.6250   20.8370 H   0  0  0  0  0  0  0  0  0  0  0  0
   22.1550   11.3530   19.5090 H   0  0  0  0  0  0  0  0  0  0  0  0
   23.4570   12.4580   19.0050 H   0  0  0  0  0  0  0  0  0  0  0  0
   22.6660   12.6760   20.5850 H   0  0  0  0  0  0  0  0  0  0  0  0
   23.6400    9.3800   19.1460 H   0  0  0  0  0  0  0  0  0  0  0  0
   25.2530    9.3240   19.8970 H   0  0  0  0  0  0  0  0  0  0  0  0
   24.9180   10.4900   18.5950 H   0  0  0  0  0  0  0  0  0  0  0  0
   21.7980   12.4490   24.7900 H   0  0  0  0  0  0  0  0  0  0  0  0
   22.6940   11.4110   25.9250 H   0  0  0  0  0  0  0  0  0  0  0  0
   20.5480    9.9210   25.8410 H   0  0  0  0  0  0  0  0  0  0  0  0
   20.5520   12.6640   27.2130 H   0  0  0  0  0  0  0  0  0  0  0  0
   21.3580   11.2020   27.8330 H   0  0  0  0  0  0  0  0  0  0  0  0
   19.5820   11.2610   27.7220 H   0  0  0  0  0  0  0  0  0  0  0  0
   23.8580    9.8450   24.9440 H   0  0  0  0  0  0  0  0  0  0  0  0
   18.3620    9.7870   25.3880 H   0  0  0  0  0  0  0  0  0  0  0  0
   17.3220   11.5520   23.2830 H   0  0  0  0  0  0  0  0  0  0  0  0
   16.7970    9.1750   23.3870 H   0  0  0  0  0  0  0  0  0  0  0  0
   14.3970   11.0700   23.4860 H   0  0  0  0  0  0  0  0  0  0  0  0
   14.4200    9.4640   22.7180 H   0  0  0  0  0  0  0  0  0  0  0  0
   15.4290   10.7770   22.0660 H   0  0  0  0  0  0  0  0  0  0  0  0
   14.9760   10.0060   25.6860 H   0  0  0  0  0  0  0  0  0  0  0  0
   16.4100    8.9600   25.8210 H   0  0  0  0  0  0  0  0  0  0  0  0
   14.9910    8.4110   24.8960 H   0  0  0  0  0  0  0  0  0  0  0  0
   15.6730   13.1420   23.4590 H   0  0  0  0  0  0  0  0  0  0  0  0
   14.9160   14.0170   26.2310 H   0  0  0  0  0  0  0  0  0  0  0  0
   13.9470   14.3080   24.7660 H   0  0  0  0  0  0  0  0  0  0  0  0
   15.0000   16.3890   25.4500 H   0  0  0  0  0  0  0  0  0  0  0  0
   17.6720   14.9340   25.2050 H   0  0  0  0  0  0  0  0  0  0  0  0
   16.9070   15.4520   26.7270 H   0  0  0  0  0  0  0  0  0  0  0  0
   17.4610   16.6670   25.5490 H   0  0  0  0  0  0  0  0  0  0  0  0
   16.4830   15.2100   23.0540 H   0  0  0  0  0  0  0  0  0  0  0  0
   16.2870   16.9460   23.3980 H   0  0  0  0  0  0  0  0  0  0  0  0
   14.8650   15.9490   23.0080 H   0  0  0  0  0  0  0  0  0  0  0  0
  1  2  1  0  0  0  0
  1  5  2  0  0  0  0
  1 46  1  0  0  0  0
  2  3  2  0  0  0  0
  2  6  1  0  0  0  0
  3  4  1  0  0  0  0
  4  5  1  0  0  0  0
  4  7  1  0  0  0  0
  5 10  1  0  0  0  0
  6 47  1  0  0  0  0
  6 48  1  0  0  0  0
  6 49  1  0  0  0  0
  7  8  1  0  0  0  0
  7 50  1  0  0  0  0
  7 51  1  0  0  0  0
  8  9  1  0  0  0  0
  9 11  2  0  0  0  0
  9 12  1  0  0  0  0
 10 52  1  0  0  0  0
 10 53  1  0  0  0  0
 10 54  1  0  0  0  0
 12 13  1  0  0  0  0
 12 55  1  0  0  0  0
 13 14  1  0  0  0  0
 13 19  1  0  0  0  0
 13 56  1  0  0  0  0
 14 15  1  0  0  0  0
 14 57  1  0  0  0  0
 14 58  1  0  0  0  0
 15 16  2  0  0  0  0
 15 17  2  0  0  0  0
 15 18  1  0  0  0  0
 18 59  1  0  0  0  0
 18 60  1  0  0  0  0
 18 61  1  0  0  0  0
 19 20  2  0  0  0  0
 19 21  1  0  0  0  0
 21 22  1  0  0  0  0
 21 62  1  0  0  0  0
 22 23  1  0  0  0  0
 22 24  1  0  0  0  0
 22 63  1  0  0  0  0
 23 28  1  0  0  0  0
 23 32  1  0  0  0  0
 23 64  1  0  0  0  0
 24 25  1  0  0  0  0
 24 65  1  0  0  0  0
 24 66  1  0  0  0  0
 25 26  1  0  0  0  0
 25 27  1  0  0  0  0
 25 67  1  0  0  0  0
 26 68  1  0  0  0  0
 26 69  1  0  0  0  0
 26 70  1  0  0  0  0
 27 71  1  0  0  0  0
 27 72  1  0  0  0  0
 27 73  1  0  0  0  0
 28 29  1  0  0  0  0
 28 74  1  0  0  0  0
 28 75  1  0  0  0  0
 29 30  1  0  0  0  0
 29 31  1  0  0  0  0
 29 76  1  0  0  0  0
 30 77  1  0  0  0  0
 30 78  1  0  0  0  0
 30 79  1  0  0  0  0
 31 33  2  0  0  0  0
 31 34  1  0  0  0  0
 32 80  1  0  0  0  0
 34 35  1  0  0  0  0
 34 81  1  0  0  0  0
 35 36  1  0  0  0  0
 35 39  1  0  0  0  0
 35 82  1  0  0  0  0
 36 37  1  0  0  0  0
 36 38  1  0  0  0  0
 36 83  1  0  0  0  0
 37 84  1  0  0  0  0
 37 85  1  0  0  0  0
 37 86  1  0  0  0  0
 38 87  1  0  0  0  0
 38 88  1  0  0  0  0
 38 89  1  0  0  0  0
 39 40  2  0  0  0  0
 39 41  1  0  0  0  0
 41 42  1  0  0  0  0
 41 90  1  0  0  0  0
 42 43  1  0  0  0  0
 42 91  1  0  0  0  0
 42 92  1  0  0  0  0
 43 44  1  0  0  0  0
 43 45  1  0  0  0  0
 43 93  1  0  0  0  0
 44 94  1  0  0  0  0
 44 95  1  0  0  0  0
 44 96  1  0  0  0  0
 45 97  1  0  0  0  0
 45 98  1  0  0  0  0
 45 99  1  0  0  0  0
M  END
>  <PARENT_CMPD_ID>
2G94

>  <STANDARD_TYPE>
Ki

>  <RELATION>
=

>  <STANDARD_VALUE>
0.00030000001

>  <STANDARD_UNITS>
uM

>  <COMPOUND_KEY>
5

>  <PUBMED_ID>
16620080

>  <JOURNAL>
J.Am.Chem.Soc.

>  <YEAR>
2006

>  <VOLUME>
128

>  <FIRST_PAGE>
5310

>  <Company>
Purdue

>  <Resolution>
1.86

>  <idx>
232

>  <Model>
Test

>  <target>
9.5228786

>  <des_pred_mlr>
7.7210498

>  <RF_Canvas>
7.3899422

>  <DNN_Canvas>
6.4252658

>  <pred_CoMFA>
7.6662002

>  <pred_COMSIA>
8.2571001

>  <pred_abm5>
7.2464814

>  <pred_ff8>
6.9929266

>  <pred_gau6>
7.5712614

>  <CID>
BACE_232

>  <RF_canvas>
1

>  <DNN_canvas>
1

$$$$
1M4H_10963
  MOE2015           3D

132132  0  0  1  0  0  0  0  0999 V2000
   32.2150   15.3170   23.1680 N   0  3  0  0  0  0  0  0  0  0  0  0
   31.4920   16.1120   22.1440 C   0  0  3  0  0  0  0  0  0  0  0  0
   30.1300   15.4620   21.8040 C   0  0  0  0  0  0  0  0  0  0  0  0
   29.2960   16.0630   21.1200 O   0  0  0  0  0  0  0  0  0  0  0  0
   32.3820   16.2620   20.9040 C   0  0  0  0  0  0  0  0  0  0  0  0
   33.8660   16.0060   21.2110 C   0  0  0  0  0  0  0  0  0  0  0  0
   34.8430   16.9190   20.4670 C   0  0  0  0  0  0  0  0  0  0  0  0
   34.7490   18.1590   20.6190 O   0  0  0  0  0  0  0  0  0  0  0  0
   35.7200   16.3920   19.7430 O   0  5  0  0  0  0  0  0  0  0  0  0
   29.9000   14.2470   22.2990 N   0  0  0  0  0  0  0  0  0  0  0  0
   28.6220   13.5630   22.0780 C   0  0  3  0  0  0  0  0  0  0  0  0
   27.6570   13.7610   23.2360 C   0  0  0  0  0  0  0  0  0  0  0  0
   28.0420   13.6840   24.3960 O   0  0  0  0  0  0  0  0  0  0  0  0
   28.8110   12.0530   21.9070 C   0  0  0  0  0  0  0  0  0  0  0  0
   28.8730   11.4840   20.4930 C   0  0  0  0  0  0  0  0  0  0  0  0
   28.7100    9.9760   20.5940 C   0  0  0  0  0  0  0  0  0  0  0  0
   27.7600   12.0730   19.6210 C   0  0  0  0  0  0  0  0  0  0  0  0
   26.3940   13.9900   22.9140 N   0  0  0  0  0  0  0  0  0  0  0  0
   25.3630   14.1580   23.9310 C   0  0  3  0  0  0  0  0  0  0  0  0
   24.0920   13.4710   23.4420 C   0  0  0  0  0  0  0  0  0  0  0  0
   23.0660   14.1200   23.2270 O   0  0  0  0  0  0  0  0  0  0  0  0
   25.1050   15.6470   24.1720 C   0  0  0  0  0  0  0  0  0  0  0  0
   26.1110   16.2600   25.1000 C   0  0  0  0  0  0  0  0  0  0  0  0
   26.1320   15.8410   26.2780 O   0  0  0  0  0  0  0  0  0  0  0  0
   26.8780   17.1450   24.6520 O   0  5  0  0  0  0  0  0  0  0  0  0
   23.0610   12.2460   19.7160 C   0  0  0  0  0  0  0  0  0  0  0  0
   24.8210   10.4780   19.4530 C   0  0  0  0  0  0  0  0  0  0  0  0
   24.1140   11.3980   20.4420 C   0  0  0  0  0  0  0  0  0  0  0  0
   23.4440   10.5760   21.5590 C   0  0  0  0  0  0  0  0  0  0  0  0
   24.1550   12.1550   23.2760 N   0  0  0  0  0  0  0  0  0  0  0  0
   23.0080   11.4130   22.7710 C   0  0  3  0  0  0  0  0  0  0  0  0
   22.3240   10.5290   23.8460 C   0  0  3  0  0  0  0  0  0  0  0  0
   23.2140    9.5020   24.2990 O   0  0  0  0  0  0  0  0  0  0  0  0
   21.8760   11.3790   25.0390 C   0  0  0  0  0  0  0  0  0  0  0  0
   20.5900   10.9430   25.7540 C   0  0  3  0  0  0  0  0  0  0  0  0
   20.6110   11.4510   27.1970 C   0  0  0  0  0  0  0  0  0  0  0  0
   19.3830   11.5130   25.0170 C   0  0  0  0  0  0  0  0  0  0  0  0
   19.3600   12.6940   24.6740 O   0  0  0  0  0  0  0  0  0  0  0  0
   18.3810   10.6800   24.7600 N   0  0  0  0  0  0  0  0  0  0  0  0
   17.1630   11.1870   24.1350 C   0  0  3  0  0  0  0  0  0  0  0  0
   16.3930   12.0500   25.1480 C   0  0  0  0  0  0  0  0  0  0  0  0
   16.4830   11.8190   26.3540 O   0  0  0  0  0  0  0  0  0  0  0  0
   16.2630   10.0330   23.6640 C   0  0  0  0  0  0  0  0  0  0  0  0
   15.7200    9.2860   24.8590 C   0  0  0  0  0  0  0  0  0  0  0  0
   15.1230   10.5780   22.7810 C   0  0  0  0  0  0  0  0  0  0  0  0
   15.6550   13.0440   24.6650 N   0  0  0  0  0  0  0  0  0  0  0  0
   14.8760   13.8990   25.5550 C   0  0  3  0  0  0  0  0  0  0  0  0
   13.5710   13.1840   25.8450 C   0  0  0  0  0  0  0  0  0  0  0  0
   13.0770   12.4330   25.0100 O   0  0  0  0  0  0  0  0  0  0  0  0
   14.5700   15.2570   24.8910 C   0  0  0  0  0  0  0  0  0  0  0  0
   15.7970   15.9600   24.2950 C   0  0  0  0  0  0  0  0  0  0  0  0
   15.5260   17.3910   23.8370 C   0  0  0  0  0  0  0  0  0  0  0  0
   14.5320   17.6250   23.1130 O   0  0  0  0  0  0  0  0  0  0  0  0
   16.3230   18.2830   24.1970 O   0  5  0  0  0  0  0  0  0  0  0  0
   13.0130   13.3960   27.0290 N   0  0  0  0  0  0  0  0  0  0  0  0
   11.7390   12.7650   27.3640 C   0  0  3  0  0  0  0  0  0  0  0  0
   10.6940   13.8250   27.7300 C   0  0  0  0  0  0  0  0  0  0  0  0
    9.6500   13.9070   27.0390 O   0  0  0  0  0  0  0  0  0  0  0  0
   11.9140   11.7790   28.5210 C   0  0  0  0  0  0  0  0  0  0  0  0
   10.7090   10.9190   28.7700 C   0  0  0  0  0  0  0  0  0  0  0  0
   10.1670   10.1460   27.7510 C   0  0  0  0  0  0  0  0  0  0  0  0
   10.1240   10.8610   30.0330 C   0  0  0  0  0  0  0  0  0  0  0  0
    9.0530    9.3180   27.9850 C   0  0  0  0  0  0  0  0  0  0  0  0
    9.0090   10.0360   30.2790 C   0  0  0  0  0  0  0  0  0  0  0  0
    8.4770    9.2640   29.2470 C   0  0  0  0  0  0  0  0  0  0  0  0
   10.9370   14.5730   28.7010 O   0  5  0  0  0  0  0  0  0  0  0  0
   31.6330   15.2150   23.9870 H   0  0  0  0  0  0  0  0  0  0  0  0
   33.0710   15.7910   23.4200 H   0  0  0  0  0  0  0  0  0  0  0  0
   32.4330   14.4040   22.7940 H   0  0  0  0  0  0  0  0  0  0  0  0
   31.2750   17.1060   22.5360 H   0  0  0  0  0  0  0  0  0  0  0  0
   32.2750   17.2750   20.5170 H   0  0  0  0  0  0  0  0  0  0  0  0
   32.0530   15.5480   20.1490 H   0  0  0  0  0  0  0  0  0  0  0  0
   34.0950   14.9750   20.9430 H   0  0  0  0  0  0  0  0  0  0  0  0
   34.0200   16.1460   22.2810 H   0  0  0  0  0  0  0  0  0  0  0  0
   30.6200   13.7880   22.8370 H   0  0  0  0  0  0  0  0  0  0  0  0
   28.2130   14.0050   21.1690 H   0  0  0  0  0  0  0  0  0  0  0  0
   27.9790   11.5650   22.4140 H   0  0  0  0  0  0  0  0  0  0  0  0
   29.7450   11.7870   22.4020 H   0  0  0  0  0  0  0  0  0  0  0  0
   29.8260   11.7400   20.0310 H   0  0  0  0  0  0  0  0  0  0  0  0
   27.7510    9.7440   21.0580 H   0  0  0  0  0  0  0  0  0  0  0  0
   29.5170    9.5630   21.2000 H   0  0  0  0  0  0  0  0  0  0  0  0
   28.7450    9.5390   19.5960 H   0  0  0  0  0  0  0  0  0  0  0  0
   26.7910   11.8340   20.0580 H   0  0  0  0  0  0  0  0  0  0  0  0
   27.8210   11.6490   18.6190 H   0  0  0  0  0  0  0  0  0  0  0  0
   27.8760   13.1550   19.5650 H   0  0  0  0  0  0  0  0  0  0  0  0
   26.1380   14.0500   21.9390 H   0  0  0  0  0  0  0  0  0  0  0  0
   25.6850   13.7130   24.8720 H   0  0  0  0  0  0  0  0  0  0  0  0
   24.1120   15.7640   24.6060 H   0  0  0  0  0  0  0  0  0  0  0  0
   25.1480   16.1690   23.2160 H   0  0  0  0  0  0  0  0  0  0  0  0
   23.5420   12.8250   18.9270 H   0  0  0  0  0  0  0  0  0  0  0  0
   22.5870   12.9230   20.4260 H   0  0  0  0  0  0  0  0  0  0  0  0
   22.3060   11.5920   19.2790 H   0  0  0  0  0  0  0  0  0  0  0  0
   25.2890   11.0760   18.6710 H   0  0  0  0  0  0  0  0  0  0  0  0
   24.0950    9.7990   19.0060 H   0  0  0  0  0  0  0  0  0  0  0  0
   25.5850    9.9020   19.9750 H   0  0  0  0  0  0  0  0  0  0  0  0
   24.8570   12.0580   20.8900 H   0  0  0  0  0  0  0  0  0  0  0  0
   24.1510    9.8200   21.9000 H   0  0  0  0  0  0  0  0  0  0  0  0
   22.5620   10.0880   21.1440 H   0  0  0  0  0  0  0  0  0  0  0  0
   25.0080   11.6630   23.5020 H   0  0  0  0  0  0  0  0  0  0  0  0
   22.2520   12.1390   22.4700 H   0  0  0  0  0  0  0  0  0  0  0  0
   21.4490   10.0660   23.3900 H   0  0  0  0  0  0  0  0  0  0  0  0
   23.9750    9.9320   24.6960 H   0  0  0  0  0  0  0  0  0  0  0  0
   21.7250   12.3970   24.6810 H   0  0  0  0  0  0  0  0  0  0  0  0
   22.6820   11.3680   25.7730 H   0  0  0  0  0  0  0  0  0  0  0  0
   20.5240    9.8550   25.7610 H   0  0  0  0  0  0  0  0  0  0  0  0
   20.6770   12.5390   27.1980 H   0  0  0  0  0  0  0  0  0  0  0  0
   21.4740   11.0340   27.7160 H   0  0  0  0  0  0  0  0  0  0  0  0
   19.6970   11.1420   27.7040 H   0  0  0  0  0  0  0  0  0  0  0  0
   18.4610    9.7010   24.9960 H   0  0  0  0  0  0  0  0  0  0  0  0
   17.4430   11.7840   23.2670 H   0  0  0  0  0  0  0  0  0  0  0  0
   16.8500    9.3370   23.0650 H   0  0  0  0  0  0  0  0  0  0  0  0
   15.1290    9.9650   25.4740 H   0  0  0  0  0  0  0  0  0  0  0  0
   16.5480    8.8910   25.4470 H   0  0  0  0  0  0  0  0  0  0  0  0
   15.0910    8.4630   24.5180 H   0  0  0  0  0  0  0  0  0  0  0  0
   14.5200   11.2790   23.3580 H   0  0  0  0  0  0  0  0  0  0  0  0
   14.4970    9.7510   22.4440 H   0  0  0  0  0  0  0  0  0  0  0  0
   15.5460   11.0890   21.9160 H   0  0  0  0  0  0  0  0  0  0  0  0
   15.6330   13.2100   23.6690 H   0  0  0  0  0  0  0  0  0  0  0  0
   15.4410   14.0890   26.4680 H   0  0  0  0  0  0  0  0  0  0  0  0
   14.1320   15.9140   25.6430 H   0  0  0  0  0  0  0  0  0  0  0  0
   13.8500   15.0910   24.0900 H   0  0  0  0  0  0  0  0  0  0  0  0
   16.1400   15.3830   23.4360 H   0  0  0  0  0  0  0  0  0  0  0  0
   16.5810   15.9840   25.0520 H   0  0  0  0  0  0  0  0  0  0  0  0
   13.4700   13.9950   27.7010 H   0  0  0  0  0  0  0  0  0  0  0  0
   11.3900   12.2170   26.4890 H   0  0  0  0  0  0  0  0  0  0  0  0
   12.1250   12.3460   29.4270 H   0  0  0  0  0  0  0  0  0  0  0  0
   12.7590   11.1290   28.2940 H   0  0  0  0  0  0  0  0  0  0  0  0
   10.6070   10.1810   26.7650 H   0  0  0  0  0  0  0  0  0  0  0  0
   10.5320   11.4580   30.8360 H   0  0  0  0  0  0  0  0  0  0  0  0
    8.6450    8.7230   27.1810 H   0  0  0  0  0  0  0  0  0  0  0  0
    8.5680   10.0020   31.2640 H   0  0  0  0  0  0  0  0  0  0  0  0
    7.6230    8.6280   29.4280 H   0  0  0  0  0  0  0  0  0  0  0  0
  1  2  1  0  0  0  0
  1 67  1  0  0  0  0
  1 68  1  0  0  0  0
  1 69  1  0  0  0  0
  2  3  1  0  0  0  0
  2  5  1  0  0  0  0
  2 70  1  0  0  0  0
  3  4  2  0  0  0  0
  3 10  1  0  0  0  0
  5  6  1  0  0  0  0
  5 71  1  0  0  0  0
  5 72  1  0  0  0  0
  6  7  1  0  0  0  0
  6 73  1  0  0  0  0
  6 74  1  0  0  0  0
  7  8  2  0  0  0  0
  7  9  1  0  0  0  0
 10 11  1  0  0  0  0
 10 75  1  0  0  0  0
 11 12  1  0  0  0  0
 11 14  1  0  0  0  0
 11 76  1  0  0  0  0
 12 13  2  0  0  0  0
 12 18  1  0  0  0  0
 14 15  1  0  0  0  0
 14 77  1  0  0  0  0
 14 78  1  0  0  0  0
 15 16  1  0  0  0  0
 15 17  1  0  0  0  0
 15 79  1  0  0  0  0
 16 80  1  0  0  0  0
 16 81  1  0  0  0  0
 16 82  1  0  0  0  0
 17 83  1  0  0  0  0
 17 84  1  0  0  0  0
 17 85  1  0  0  0  0
 18 19  1  0  0  0  0
 18 86  1  0  0  0  0
 19 20  1  0  0  0  0
 19 22  1  0  0  0  0
 19 87  1  0  0  0  0
 20 21  2  0  0  0  0
 20 30  1  0  0  0  0
 22 23  1  0  0  0  0
 22 88  1  0  0  0  0
 22 89  1  0  0  0  0
 23 24  2  0  0  0  0
 23 25  1  0  0  0  0
 26 28  1  0  0  0  0
 26 90  1  0  0  0  0
 26 91  1  0  0  0  0
 26 92  1  0  0  0  0
 27 28  1  0  0  0  0
 27 93  1  0  0  0  0
 27 94  1  0  0  0  0
 27 95  1  0  0  0  0
 28 29  1  0  0  0  0
 28 96  1  0  0  0  0
 29 31  1  0  0  0  0
 29 97  1  0  0  0  0
 29 98  1  0  0  0  0
 30 31  1  0  0  0  0
 30 99  1  0  0  0  0
 31 32  1  0  0  0  0
 31100  1  0  0  0  0
 32 33  1  0  0  0  0
 32 34  1  0  0  0  0
 32101  1  0  0  0  0
 33102  1  0  0  0  0
 34 35  1  0  0  0  0
 34103  1  0  0  0  0
 34104  1  0  0  0  0
 35 36  1  0  0  0  0
 35 37  1  0  0  0  0
 35105  1  0  0  0  0
 36106  1  0  0  0  0
 36107  1  0  0  0  0
 36108  1  0  0  0  0
 37 38  2  0  0  0  0
 37 39  1  0  0  0  0
 39 40  1  0  0  0  0
 39109  1  0  0  0  0
 40 41  1  0  0  0  0
 40 43  1  0  0  0  0
 40110  1  0  0  0  0
 41 42  2  0  0  0  0
 41 46  1  0  0  0  0
 43 44  1  0  0  0  0
 43 45  1  0  0  0  0
 43111  1  0  0  0  0
 44112  1  0  0  0  0
 44113  1  0  0  0  0
 44114  1  0  0  0  0
 45115  1  0  0  0  0
 45116  1  0  0  0  0
 45117  1  0  0  0  0
 46 47  1  0  0  0  0
 46118  1  0  0  0  0
 47 48  1  0  0  0  0
 47 50  1  0  0  0  0
 47119  1  0  0  0  0
 48 49  2  0  0  0  0
 48 55  1  0  0  0  0
 50 51  1  0  0  0  0
 50120  1  0  0  0  0
 50121  1  0  0  0  0
 51 52  1  0  0  0  0
 51122  1  0  0  0  0
 51123  1  0  0  0  0
 52 53  2  0  0  0  0
 52 54  1  0  0  0  0
 55 56  1  0  0  0  0
 55124  1  0  0  0  0
 56 57  1  0  0  0  0
 56 59  1  0  0  0  0
 56125  1  0  0  0  0
 57 58  2  0  0  0  0
 57 66  1  0  0  0  0
 59 60  1  0  0  0  0
 59126  1  0  0  0  0
 59127  1  0  0  0  0
 60 61  2  0  0  0  0
 60 62  1  0  0  0  0
 61 63  1  0  0  0  0
 61128  1  0  0  0  0
 62 64  2  0  0  0  0
 62129  1  0  0  0  0
 63 65  2  0  0  0  0
 63130  1  0  0  0  0
 64 65  1  0  0  0  0
 64131  1  0  0  0  0
 65132  1  0  0  0  0
M  CHG  1   1   1
M  CHG  1   9  -1
M  CHG  1  25  -1
M  CHG  1  54  -1
M  CHG  1  66  -1
M  END
>  <PARENT_CMPD_ID>
1M4H

>  <STANDARD_TYPE>
Ki

>  <RELATION>
=

>  <STANDARD_VALUE>
0.00030000001

>  <STANDARD_UNITS>
uM

>  <COMPOUND_KEY>
OM00-3

>  <PUBMED_ID>
12206667

>  <JOURNAL>
Biochemistry

>  <YEAR>
2002

>  <VOLUME>
41

>  <FIRST_PAGE>
10963

>  <Company>
OMRF

>  <Resolution>
2.0999999

>  <idx>
233

>  <Model>
Test

>  <target>
9.5228786

>  <des_pred_mlr>
8.2222996

>  <RF_Canvas>
7.2900391

>  <DNN_Canvas>
6.5360847

>  <pred_CoMFA>
7.2104001

>  <pred_COMSIA>
6.5907001

>  <pred_abm5>
7.2963438

>  <pred_ff8>
7.6369109

>  <pred_gau6>
8.5471048

>  <CID>
BACE_233

>  <RF_canvas>
0

>  <DNN_canvas>
1

$$$$
2QMG_418
  MOE2015           3D

 84 88  0  0  1  0  0  0  0  0999 V2000
   26.7740   15.7410   24.6010 C   0  0  0  0  0  0  0  0  0  0  0  0
   25.4940   16.1660   25.0440 C   0  0  0  0  0  0  0  0  0  0  0  0
   24.3460   15.3820   24.7190 C   0  0  0  0  0  0  0  0  0  0  0  0
   24.4780   14.1820   23.9560 C   0  0  0  0  0  0  0  0  0  0  0  0
   25.7530   13.7820   23.5340 C   0  0  0  0  0  0  0  0  0  0  0  0
   26.9100   14.5470   23.8400 C   0  0  0  0  0  0  0  0  0  0  0  0
   28.2390   14.0770   23.3750 C   0  0  0  0  0  0  0  0  0  0  0  0
   28.4600   13.8060   22.0080 N   0  0  0  0  0  0  0  0  0  0  0  0
   29.1490   13.9060   24.1830 O   0  0  0  0  0  0  0  0  0  0  0  0
   27.5230   13.9410   20.8760 C   0  0  0  0  0  0  0  0  0  0  0  0
   28.4500   14.5200   19.8010 C   0  0  0  0  0  0  0  0  0  0  0  0
   29.8130   13.8550   20.0610 C   0  0  0  0  0  0  0  0  0  0  0  0
   29.7530   13.3250   21.5070 C   0  0  3  0  0  0  0  0  0  0  0  0
   29.7890   11.7730   21.5180 C   0  0  0  0  0  0  0  0  0  0  0  0
   25.3590   17.4350   25.8460 C   0  0  0  0  0  0  0  0  0  0  0  0
   23.2880   13.3810   23.6220 C   0  0  0  0  0  0  0  0  0  0  0  0
   23.4990   12.0230   23.5060 N   0  0  0  0  0  0  0  0  0  0  0  0
   22.1750   13.8840   23.4530 O   0  0  0  0  0  0  0  0  0  0  0  0
   22.4260   11.0560   23.1680 C   0  0  3  0  0  0  0  0  0  0  0  0
   21.9730   10.2380   24.4010 C   0  0  3  0  0  0  0  0  0  0  0  0
   22.9380   10.1140   22.0570 C   0  0  0  0  0  0  0  0  0  0  0  0
   20.9040    9.4110   24.0040 O   0  0  0  0  0  0  0  0  0  0  0  0
   23.6010   10.8040   20.8900 C   0  0  0  0  0  0  0  0  0  0  0  0
   24.9480   10.4940   20.5630 C   0  0  0  0  0  0  0  0  0  0  0  0
   25.5670   11.1370   19.4700 C   0  0  0  0  0  0  0  0  0  0  0  0
   24.8980   12.0900   18.6770 C   0  0  0  0  0  0  0  0  0  0  0  0
   23.5580   12.3900   19.0160 C   0  0  0  0  0  0  0  0  0  0  0  0
   22.8990   11.7690   20.1020 C   0  0  0  0  0  0  0  0  0  0  0  0
   26.8290   10.8280   19.1820 F   0  0  0  0  0  0  0  0  0  0  0  0
   22.9010   13.2850   18.2860 F   0  0  0  0  0  0  0  0  0  0  0  0
   19.3310   11.8270   26.5220 C   0  0  3  0  0  0  0  0  0  0  0  0
   20.2270   11.1460   27.5460 C   0  0  0  0  0  0  0  0  0  0  0  0
   21.0400   10.2410   26.7300 N   0  3  0  0  0  0  0  0  0  0  0  0
   20.2670   11.9970   25.3130 C   0  0  0  0  0  0  0  0  0  0  0  0
   21.4790   11.0830   25.6070 C   0  0  3  0  0  0  0  0  0  0  0  0
   18.2630   10.9110   26.2810 O   0  0  0  0  0  0  0  0  0  0  0  0
   17.2860   11.2120   25.3160 C   0  0  0  0  0  0  0  0  0  0  0  0
   16.8200   12.5230   24.9500 C   0  0  0  0  0  0  0  0  0  0  0  0
   15.8270   12.6700   23.9550 C   0  0  0  0  0  0  0  0  0  0  0  0
   15.2900   11.5250   23.3150 C   0  0  0  0  0  0  0  0  0  0  0  0
   15.7490   10.2350   23.6750 C   0  0  0  0  0  0  0  0  0  0  0  0
   16.7410   10.0850   24.6680 C   0  0  0  0  0  0  0  0  0  0  0  0
   29.3240    9.8700   22.9000 C   0  0  0  0  0  0  0  0  0  0  0  0
   29.4970   11.2700   22.8170 O   0  0  0  0  0  0  0  0  0  0  0  0
   27.6480   16.3270   24.8430 H   0  0  0  0  0  0  0  0  0  0  0  0
   23.3690   15.6990   25.0530 H   0  0  0  0  0  0  0  0  0  0  0  0
   25.8580   12.8710   22.9630 H   0  0  0  0  0  0  0  0  0  0  0  0
   26.7060   14.6230   21.1110 H   0  0  0  0  0  0  0  0  0  0  0  0
   27.1150   12.9760   20.5760 H   0  0  0  0  0  0  0  0  0  0  0  0
   28.5250   15.6030   19.9010 H   0  0  0  0  0  0  0  0  0  0  0  0
   28.0850   14.2720   18.8040 H   0  0  0  0  0  0  0  0  0  0  0  0
   30.6170   14.5840   19.9570 H   0  0  0  0  0  0  0  0  0  0  0  0
   29.9740   13.0340   19.3620 H   0  0  0  0  0  0  0  0  0  0  0  0
   30.5940   13.6620   22.1130 H   0  0  0  0  0  0  0  0  0  0  0  0
   30.7820   11.4360   21.2190 H   0  0  0  0  0  0  0  0  0  0  0  0
   29.0490   11.3930   20.8130 H   0  0  0  0  0  0  0  0  0  0  0  0
   26.3430   17.8830   25.9860 H   0  0  0  0  0  0  0  0  0  0  0  0
   24.9220   17.2060   26.8180 H   0  0  0  0  0  0  0  0  0  0  0  0
   24.7140   18.1340   25.3140 H   0  0  0  0  0  0  0  0  0  0  0  0
   24.4320   11.6690   23.6590 H   0  0  0  0  0  0  0  0  0  0  0  0
   21.5560   11.6120   22.8200 H   0  0  0  0  0  0  0  0  0  0  0  0
   22.8540    9.6930   24.7400 H   0  0  0  0  0  0  0  0  0  0  0  0
   22.0880    9.5470   21.6760 H   0  0  0  0  0  0  0  0  0  0  0  0
   23.6610    9.4300   22.5010 H   0  0  0  0  0  0  0  0  0  0  0  0
   20.1840    9.9810   23.7250 H   0  0  0  0  0  0  0  0  0  0  0  0
   25.4960    9.7700   21.1480 H   0  0  0  0  0  0  0  0  0  0  0  0
   25.3880   12.5720   17.8440 H   0  0  0  0  0  0  0  0  0  0  0  0
   21.8750   12.0210   20.3340 H   0  0  0  0  0  0  0  0  0  0  0  0
   18.8910   12.7850   26.7980 H   0  0  0  0  0  0  0  0  0  0  0  0
   19.6360   10.5910   28.2750 H   0  0  0  0  0  0  0  0  0  0  0  0
   20.8520   11.8740   28.0640 H   0  0  0  0  0  0  0  0  0  0  0  0
   20.4900    9.4600   26.4010 H   0  0  0  0  0  0  0  0  0  0  0  0
   21.8320    9.8980   27.2540 H   0  0  0  0  0  0  0  0  0  0  0  0
   20.5850   13.0350   25.2190 H   0  0  0  0  0  0  0  0  0  0  0  0
   19.7670   11.6860   24.3960 H   0  0  0  0  0  0  0  0  0  0  0  0
   22.3560   11.6860   25.8400 H   0  0  0  0  0  0  0  0  0  0  0  0
   17.2300   13.3960   25.4360 H   0  0  0  0  0  0  0  0  0  0  0  0
   15.4770   13.6550   23.6820 H   0  0  0  0  0  0  0  0  0  0  0  0
   14.5320   11.6360   22.5540 H   0  0  0  0  0  0  0  0  0  0  0  0
   15.3390    9.3630   23.1880 H   0  0  0  0  0  0  0  0  0  0  0  0
   17.0860    9.0970   24.9340 H   0  0  0  0  0  0  0  0  0  0  0  0
   29.1060    9.5910   23.9310 H   0  0  0  0  0  0  0  0  0  0  0  0
   30.2370    9.3710   22.5740 H   0  0  0  0  0  0  0  0  0  0  0  0
   28.4960    9.5680   22.2590 H   0  0  0  0  0  0  0  0  0  0  0  0
  1  2  1  0  0  0  0
  1  6  2  0  0  0  0
  1 45  1  0  0  0  0
  2  3  2  0  0  0  0
  2 15  1  0  0  0  0
  3  4  1  0  0  0  0
  3 46  1  0  0  0  0
  4  5  2  0  0  0  0
  4 16  1  0  0  0  0
  5  6  1  0  0  0  0
  5 47  1  0  0  0  0
  6  7  1  0  0  0  0
  7  8  1  0  0  0  0
  7  9  2  0  0  0  0
  8 10  1  0  0  0  0
  8 13  1  0  0  0  0
 10 11  1  0  0  0  0
 10 48  1  0  0  0  0
 10 49  1  0  0  0  0
 11 12  1  0  0  0  0
 11 50  1  0  0  0  0
 11 51  1  0  0  0  0
 12 13  1  0  0  0  0
 12 52  1  0  0  0  0
 12 53  1  0  0  0  0
 13 14  1  0  0  0  0
 13 54  1  0  0  0  0
 14 44  1  0  0  0  0
 14 55  1  0  0  0  0
 14 56  1  0  0  0  0
 15 57  1  0  0  0  0
 15 58  1  0  0  0  0
 15 59  1  0  0  0  0
 16 17  1  0  0  0  0
 16 18  2  0  0  0  0
 17 19  1  0  0  0  0
 17 60  1  0  0  0  0
 19 20  1  0  0  0  0
 19 21  1  0  0  0  0
 19 61  1  0  0  0  0
 20 22  1  0  0  0  0
 20 35  1  0  0  0  0
 20 62  1  0  0  0  0
 21 23  1  0  0  0  0
 21 63  1  0  0  0  0
 21 64  1  0  0  0  0
 22 65  1  0  0  0  0
 23 24  1  0  0  0  0
 23 28  2  0  0  0  0
 24 25  2  0  0  0  0
 24 66  1  0  0  0  0
 25 26  1  0  0  0  0
 25 29  1  0  0  0  0
 26 27  2  0  0  0  0
 26 67  1  0  0  0  0
 27 28  1  0  0  0  0
 27 30  1  0  0  0  0
 28 68  1  0  0  0  0
 31 32  1  0  0  0  0
 31 34  1  0  0  0  0
 31 36  1  0  0  0  0
 31 69  1  0  0  0  0
 32 33  1  0  0  0  0
 32 70  1  0  0  0  0
 32 71  1  0  0  0  0
 33 35  1  0  0  0  0
 33 72  1  0  0  0  0
 33 73  1  0  0  0  0
 34 35  1  0  0  0  0
 34 74  1  0  0  0  0
 34 75  1  0  0  0  0
 35 76  1  0  0  0  0
 36 37  1  0  0  0  0
 37 38  1  0  0  0  0
 37 42  2  0  0  0  0
 38 39  2  0  0  0  0
 38 77  1  0  0  0  0
 39 40  1  0  0  0  0
 39 78  1  0  0  0  0
 40 41  2  0  0  0  0
 40 79  1  0  0  0  0
 41 42  1  0  0  0  0
 41 80  1  0  0  0  0
 42 81  1  0  0  0  0
 43 44  1  0  0  0  0
 43 82  1  0  0  0  0
 43 83  1  0  0  0  0
 43 84  1  0  0  0  0
M  CHG  1  33   1
M  END
>  <PARENT_CMPD_ID>
2QMG

>  <STANDARD_TYPE>
Ki

>  <RELATION>
=

>  <STANDARD_VALUE>
0.00070000003

>  <STANDARD_UNITS>
uM

>  <COMPOUND_KEY>
11

>  <PUBMED_ID>
17980584

>  <JOURNAL>
Bioorg.Med.Chem.Lett.

>  <YEAR>
2008

>  <VOLUME>
18

>  <FIRST_PAGE>
418

>  <Company>
Schering

>  <Resolution>
1.89

>  <idx>
234

>  <Model>
Test

>  <target>
9.1549015

>  <des_pred_mlr>
7.59799

>  <RF_Canvas>
7.8910379

>  <DNN_Canvas>
7.3528996

>  <pred_CoMFA>
8.5754995

>  <pred_COMSIA>
7.8811002

>  <pred_abm5>
8.5495329

>  <pred_ff8>
7.1872087

>  <pred_gau6>
7.9896832

>  <CID>
BACE_234

>  <RF_canvas>
1

>  <DNN_canvas>
1

$$$$
3LPK_2837
  MOE2015           3D

 91 95  0  0  1  0  0  0  0  0999 V2000
   26.7180   15.7630   24.5660 C   0  0  0  0  0  0  0  0  0  0  0  0
   26.6660   11.2250   18.9060 F   0  0  0  0  0  0  0  0  0  0  0  0
   28.4210   13.9890   22.0280 N   0  0  0  0  0  0  0  0  0  0  0  0
   29.1300   13.8940   24.1760 O   0  0  0  0  0  0  0  0  0  0  0  0
   17.7100   13.2860   25.4220 S   0  0  0  0  0  0  0  0  0  0  0  0
   26.8800   14.5690   23.8040 C   0  0  0  0  0  0  0  0  0  0  0  0
   22.5730   13.5750   18.2830 F   0  0  0  0  0  0  0  0  0  0  0  0
   23.5230   12.0560   23.4090 N   0  0  0  0  0  0  0  0  0  0  0  0
   22.1500   13.8500   23.3010 O   0  0  0  0  0  0  0  0  0  0  0  0
   25.7280   13.7880   23.4670 C   0  0  0  0  0  0  0  0  0  0  0  0
   21.0700   10.3260   26.5150 N   0  3  0  0  0  0  0  0  0  0  0  0
   21.0030    9.3380   23.8020 O   0  0  0  0  0  0  0  0  0  0  0  0
   24.4310   14.1940   23.8770 C   0  0  0  0  0  0  0  0  0  0  0  0
   19.1770   12.4530   25.9210 N   0  0  0  0  0  0  0  0  0  0  0  0
   24.2720   15.3930   24.6370 C   0  0  0  0  0  0  0  0  0  0  0  0
   29.1570   11.5070   22.7070 O   0  0  0  0  0  0  0  0  0  0  0  0
   25.4170   16.1750   24.9800 C   0  0  0  0  0  0  0  0  0  0  0  0
   17.2070   13.9180   26.6050 O   0  0  0  0  0  0  0  0  0  0  0  0
   28.2240   14.1320   23.3790 C   0  0  0  0  0  0  0  0  0  0  0  0
   18.0890   14.0760   24.2910 O   0  0  0  0  0  0  0  0  0  0  0  0
   29.7300   13.5560   21.5370 C   0  0  3  0  0  0  0  0  0  0  0  0
   27.4590   14.2400   20.9620 C   0  0  0  0  0  0  0  0  0  0  0  0
   28.2740   14.5020   19.7200 C   0  0  0  0  0  0  0  0  0  0  0  0
   29.7090   14.1690   20.1290 C   0  0  0  0  0  0  0  0  0  0  0  0
   29.6700   12.0210   21.4870 C   0  0  0  0  0  0  0  0  0  0  0  0
   25.2540   17.4100   25.7650 C   0  0  0  0  0  0  0  0  0  0  0  0
   23.2670   13.3810   23.5090 C   0  0  0  0  0  0  0  0  0  0  0  0
   22.4170   11.1660   23.0330 C   0  0  3  0  0  0  0  0  0  0  0  0
   21.9440   10.3230   24.2530 C   0  0  3  0  0  0  0  0  0  0  0  0
   22.8810   10.2200   21.9130 C   0  0  0  0  0  0  0  0  0  0  0  0
   23.4860   10.9880   20.7500 C   0  0  0  0  0  0  0  0  0  0  0  0
   24.8350   10.7390   20.3620 C   0  0  0  0  0  0  0  0  0  0  0  0
   25.4060   11.4550   19.2690 C   0  0  0  0  0  0  0  0  0  0  0  0
   24.6370   12.4170   18.5640 C   0  0  0  0  0  0  0  0  0  0  0  0
   23.2920   12.6680   18.9490 C   0  0  0  0  0  0  0  0  0  0  0  0
   22.7120   11.9550   20.0390 C   0  0  0  0  0  0  0  0  0  0  0  0
   19.9250   11.7450   24.8540 C   0  0  0  0  0  0  0  0  0  0  0  0
   19.0660   11.5740   27.1080 C   0  0  0  0  0  0  0  0  0  0  0  0
   20.4290   11.1050   27.5790 C   0  0  0  0  0  0  0  0  0  0  0  0
   21.2730   11.1930   25.3450 C   0  0  3  0  0  0  0  0  0  0  0  0
   15.4920   10.2420   21.7290 C   0  0  0  0  0  0  0  0  0  0  0  0
   29.4260   10.1140   22.8330 C   0  0  0  0  0  0  0  0  0  0  0  0
   15.8280   11.3100   25.8950 C   0  0  0  0  0  0  0  0  0  0  0  0
   14.9420   10.2680   25.4970 C   0  0  0  0  0  0  0  0  0  0  0  0
   14.8330    9.9180   24.1220 C   0  0  0  0  0  0  0  0  0  0  0  0
   15.6070   10.6060   23.1460 C   0  0  0  0  0  0  0  0  0  0  0  0
   16.4940   11.6470   23.5430 C   0  0  0  0  0  0  0  0  0  0  0  0
   16.6040   11.9990   24.9180 C   0  0  0  0  0  0  0  0  0  0  0  0
   27.5810   16.3560   24.8300 H   0  0  0  0  0  0  0  0  0  0  0  0
   24.4470   11.6900   23.5880 H   0  0  0  0  0  0  0  0  0  0  0  0
   25.8470   12.8800   22.8950 H   0  0  0  0  0  0  0  0  0  0  0  0
   20.4780    9.5480   26.2610 H   0  0  0  0  0  0  0  0  0  0  0  0
   21.9620    9.9800   26.8390 H   0  0  0  0  0  0  0  0  0  0  0  0
   21.4360    8.8100   23.1270 H   0  0  0  0  0  0  0  0  0  0  0  0
   23.2880   15.7080   24.9520 H   0  0  0  0  0  0  0  0  0  0  0  0
   30.6130   13.8390   22.1090 H   0  0  0  0  0  0  0  0  0  0  0  0
   26.8450   15.1080   21.2020 H   0  0  0  0  0  0  0  0  0  0  0  0
   26.8180   13.3700   20.8180 H   0  0  0  0  0  0  0  0  0  0  0  0
   28.1920   15.5460   19.4180 H   0  0  0  0  0  0  0  0  0  0  0  0
   27.9470   13.8600   18.9020 H   0  0  0  0  0  0  0  0  0  0  0  0
   30.1290   13.4560   19.4200 H   0  0  0  0  0  0  0  0  0  0  0  0
   30.3060   15.0810   20.1240 H   0  0  0  0  0  0  0  0  0  0  0  0
   29.0220   11.7130   20.6670 H   0  0  0  0  0  0  0  0  0  0  0  0
   30.6730   11.6270   21.3250 H   0  0  0  0  0  0  0  0  0  0  0  0
   26.2290   17.8680   25.9280 H   0  0  0  0  0  0  0  0  0  0  0  0
   24.7990   17.1720   26.7260 H   0  0  0  0  0  0  0  0  0  0  0  0
   24.6130   18.1040   25.2210 H   0  0  0  0  0  0  0  0  0  0  0  0
   21.5830   11.7770   22.6870 H   0  0  0  0  0  0  0  0  0  0  0  0
   22.8240    9.8560   24.6940 H   0  0  0  0  0  0  0  0  0  0  0  0
   22.0240    9.6500   21.5540 H   0  0  0  0  0  0  0  0  0  0  0  0
   23.6300    9.5370   22.3140 H   0  0  0  0  0  0  0  0  0  0  0  0
   25.4240   10.0080   20.8960 H   0  0  0  0  0  0  0  0  0  0  0  0
   25.0730   12.9570   17.7370 H   0  0  0  0  0  0  0  0  0  0  0  0
   21.6890   12.1460   20.3270 H   0  0  0  0  0  0  0  0  0  0  0  0
   20.1100   12.4410   24.0360 H   0  0  0  0  0  0  0  0  0  0  0  0
   19.3180   10.9150   24.4940 H   0  0  0  0  0  0  0  0  0  0  0  0
   18.4610   10.7040   26.8500 H   0  0  0  0  0  0  0  0  0  0  0  0
   18.5830   12.1260   27.9140 H   0  0  0  0  0  0  0  0  0  0  0  0
   21.0480   11.9690   27.8200 H   0  0  0  0  0  0  0  0  0  0  0  0
   20.3130   10.4820   28.4660 H   0  0  0  0  0  0  0  0  0  0  0  0
   21.9010   12.0490   25.5920 H   0  0  0  0  0  0  0  0  0  0  0  0
   14.7710    9.4320   21.6190 H   0  0  0  0  0  0  0  0  0  0  0  0
   16.4640    9.9170   21.3570 H   0  0  0  0  0  0  0  0  0  0  0  0
   15.1560   11.1070   21.1580 H   0  0  0  0  0  0  0  0  0  0  0  0
   29.0210    9.7500   23.7770 H   0  0  0  0  0  0  0  0  0  0  0  0
   30.5030    9.9490   22.8120 H   0  0  0  0  0  0  0  0  0  0  0  0
   28.9600    9.5780   22.0070 H   0  0  0  0  0  0  0  0  0  0  0  0
   15.9120   11.5780   26.9380 H   0  0  0  0  0  0  0  0  0  0  0  0
   14.3540    9.7450   26.2370 H   0  0  0  0  0  0  0  0  0  0  0  0
   14.1610    9.1290   23.8190 H   0  0  0  0  0  0  0  0  0  0  0  0
   17.0820   12.1680   22.8020 H   0  0  0  0  0  0  0  0  0  0  0  0
  1  6  1  0  0  0  0
  1 17  2  0  0  0  0
  1 49  1  0  0  0  0
  2 33  1  0  0  0  0
  3 19  1  0  0  0  0
  3 21  1  0  0  0  0
  3 22  1  0  0  0  0
  4 19  2  0  0  0  0
  5 14  1  0  0  0  0
  5 18  2  0  0  0  0
  5 20  2  0  0  0  0
  5 48  1  0  0  0  0
  6 10  2  0  0  0  0
  6 19  1  0  0  0  0
  7 35  1  0  0  0  0
  8 27  1  0  0  0  0
  8 28  1  0  0  0  0
  8 50  1  0  0  0  0
  9 27  2  0  0  0  0
 10 13  1  0  0  0  0
 10 51  1  0  0  0  0
 11 39  1  0  0  0  0
 11 40  1  0  0  0  0
 11 52  1  0  0  0  0
 11 53  1  0  0  0  0
 12 29  1  0  0  0  0
 12 54  1  0  0  0  0
 13 15  2  0  0  0  0
 13 27  1  0  0  0  0
 14 37  1  0  0  0  0
 14 38  1  0  0  0  0
 15 17  1  0  0  0  0
 15 55  1  0  0  0  0
 16 25  1  0  0  0  0
 16 42  1  0  0  0  0
 17 26  1  0  0  0  0
 21 24  1  0  0  0  0
 21 25  1  0  0  0  0
 21 56  1  0  0  0  0
 22 23  1  0  0  0  0
 22 57  1  0  0  0  0
 22 58  1  0  0  0  0
 23 24  1  0  0  0  0
 23 59  1  0  0  0  0
 23 60  1  0  0  0  0
 24 61  1  0  0  0  0
 24 62  1  0  0  0  0
 25 63  1  0  0  0  0
 25 64  1  0  0  0  0
 26 65  1  0  0  0  0
 26 66  1  0  0  0  0
 26 67  1  0  0  0  0
 28 29  1  0  0  0  0
 28 30  1  0  0  0  0
 28 68  1  0  0  0  0
 29 40  1  0  0  0  0
 29 69  1  0  0  0  0
 30 31  1  0  0  0  0
 30 70  1  0  0  0  0
 30 71  1  0  0  0  0
 31 32  1  0  0  0  0
 31 36  2  0  0  0  0
 32 33  2  0  0  0  0
 32 72  1  0  0  0  0
 33 34  1  0  0  0  0
 34 35  2  0  0  0  0
 34 73  1  0  0  0  0
 35 36  1  0  0  0  0
 36 74  1  0  0  0  0
 37 40  1  0  0  0  0
 37 75  1  0  0  0  0
 37 76  1  0  0  0  0
 38 39  1  0  0  0  0
 38 77  1  0  0  0  0
 38 78  1  0  0  0  0
 39 79  1  0  0  0  0
 39 80  1  0  0  0  0
 40 81  1  0  0  0  0
 41 46  1  0  0  0  0
 41 82  1  0  0  0  0
 41 83  1  0  0  0  0
 41 84  1  0  0  0  0
 42 85  1  0  0  0  0
 42 86  1  0  0  0  0
 42 87  1  0  0  0  0
 43 44  1  0  0  0  0
 43 48  2  0  0  0  0
 43 88  1  0  0  0  0
 44 45  2  0  0  0  0
 44 89  1  0  0  0  0
 45 46  1  0  0  0  0
 45 90  1  0  0  0  0
 46 47  2  0  0  0  0
 47 48  1  0  0  0  0
 47 91  1  0  0  0  0
M  CHG  1  11   1
M  END
>  <PARENT_CMPD_ID>
3LPK

>  <STANDARD_TYPE>
Ki

>  <RELATION>
=

>  <STANDARD_VALUE>
0.001

>  <STANDARD_UNITS>
uM

>  <COMPOUND_KEY>
3x

>  <PUBMED_ID>
20347593

>  <JOURNAL>
Bioorg.Med.Chem.Lett.

>  <YEAR>
2010

>  <VOLUME>
20

>  <FIRST_PAGE>
2837

>  <Company>
Merck

>  <Resolution>
1.9299999

>  <idx>
235

>  <Model>
Test

>  <target>
9

>  <des_pred_mlr>
7.90804

>  <RF_Canvas>
7.7442741

>  <DNN_Canvas>
7.8196139

>  <pred_CoMFA>
8.5893002

>  <pred_COMSIA>
8.1012001

>  <pred_abm5>
8.3159113

>  <pred_ff8>
7.9179893

>  <pred_gau6>
8.1100712

>  <CID>
BACE_235

>  <RF_canvas>
1

>  <DNN_canvas>
1

$$$$
3IXJ_1458
  MOE2015           3D

111114  0  0  1  0  0  0  0  0999 V2000
   29.8500   13.4440   22.0690 O   0  0  0  0  0  0  0  0  0  0  0  0
   28.9020   12.7520   22.3850 C   0  0  0  0  0  0  0  0  0  0  0  0
   28.8010   11.4700   22.0450 N   0  0  0  0  0  0  0  0  0  0  0  0
   29.8170   10.7540   21.2920 C   0  0  3  0  0  0  0  0  0  0  0  0
   30.6530    9.9550   22.2480 C   0  0  0  0  0  0  0  0  0  0  0  0
   30.0910    9.0020   23.1100 C   0  0  0  0  0  0  0  0  0  0  0  0
   30.8980    8.2720   23.9740 C   0  0  0  0  0  0  0  0  0  0  0  0
   32.2750    8.4980   24.0020 C   0  0  0  0  0  0  0  0  0  0  0  0
   32.8480    9.4470   23.1590 C   0  0  0  0  0  0  0  0  0  0  0  0
   32.0270   10.1730   22.2900 C   0  0  0  0  0  0  0  0  0  0  0  0
   29.1770    9.8500   20.2440 C   0  0  0  0  0  0  0  0  0  0  0  0
   27.7950   13.3520   23.1870 C   0  0  0  0  0  0  0  0  0  0  0  0
   28.0440   14.3700   24.1040 C   0  0  0  0  0  0  0  0  0  0  0  0
   27.0020   14.9190   24.8580 C   0  0  0  0  0  0  0  0  0  0  0  0
   27.2210   15.9740   25.7730 N   0  0  0  0  0  0  0  0  0  0  0  0
   28.5550   16.1960   26.5440 S   0  0  0  0  0  0  0  0  0  0  0  0
   28.2820   16.8040   27.8110 O   0  0  0  0  0  0  0  0  0  0  0  0
   29.5440   17.2340   25.6660 C   0  0  0  0  0  0  0  0  0  0  0  0
   29.2350   14.9650   26.7310 O   0  0  0  0  0  0  0  0  0  0  0  0
   26.1250   16.9310   25.9520 C   0  0  0  0  0  0  0  0  0  0  0  0
   25.7030   14.4340   24.6660 C   0  0  0  0  0  0  0  0  0  0  0  0
   26.5150   12.8650   23.0130 C   0  0  0  0  0  0  0  0  0  0  0  0
   25.4650   13.3950   23.7570 C   0  0  0  0  0  0  0  0  0  0  0  0
   24.1020   12.8390   23.5010 C   0  0  0  0  0  0  0  0  0  0  0  0
   23.1780   13.6080   23.3240 O   0  0  0  0  0  0  0  0  0  0  0  0
   23.9520   11.5090   23.4460 N   0  0  0  0  0  0  0  0  0  0  0  0
   22.6920   10.8540   23.1570 C   0  0  3  0  0  0  0  0  0  0  0  0
   22.9130    9.7300   22.1210 C   0  0  0  0  0  0  0  0  0  0  0  0
   24.0790    9.8870   21.3120 O   0  0  0  0  0  0  0  0  0  0  0  0
   24.2210   10.9040   20.3820 C   0  0  0  0  0  0  0  0  0  0  0  0
   25.4690   11.1290   19.7990 C   0  0  0  0  0  0  0  0  0  0  0  0
   25.6280   12.1640   18.8690 C   0  0  0  0  0  0  0  0  0  0  0  0
   26.8210   12.3850   18.3080 F   0  0  0  0  0  0  0  0  0  0  0  0
   24.5610   12.9870   18.5260 C   0  0  0  0  0  0  0  0  0  0  0  0
   23.3160   12.7760   19.1050 C   0  0  0  0  0  0  0  0  0  0  0  0
   22.2730   13.5600   18.7560 F   0  0  0  0  0  0  0  0  0  0  0  0
   23.1440   11.7300   20.0250 C   0  0  0  0  0  0  0  0  0  0  0  0
   21.9810   10.2930   24.3900 C   0  0  3  0  0  0  0  0  0  0  0  0
   22.8270    9.2950   24.9760 O   0  0  0  0  0  0  0  0  0  0  0  0
   21.6580   11.3890   25.3800 C   0  0  0  0  0  0  0  0  0  0  0  0
   20.3740   11.1020   26.1560 C   0  0  3  0  0  0  0  0  0  0  0  0
   20.4660   11.7790   27.4300 O   0  0  0  0  0  0  0  0  0  0  0  0
   19.4680   11.3430   28.3580 C   0  0  0  0  0  0  0  0  0  0  0  0
   19.1730   11.6220   25.4040 C   0  0  0  0  0  0  0  0  0  0  0  0
   19.1960   12.7770   25.0270 O   0  0  0  0  0  0  0  0  0  0  0  0
   18.1360   10.7940   25.1930 N   0  0  0  0  0  0  0  0  0  0  0  0
   16.9140   11.2210   24.5330 C   0  0  3  0  0  0  0  0  0  0  0  0
   15.8740   10.1230   24.3020 C   0  0  0  0  0  0  0  0  0  0  0  0
   16.0680    9.5210   22.9250 C   0  0  0  0  0  0  0  0  0  0  0  0
   15.8000    9.0540   25.3740 C   0  0  0  0  0  0  0  0  0  0  0  0
   16.2160   12.3060   25.3090 C   0  0  0  0  0  0  0  0  0  0  0  0
   16.2440   12.2860   26.5370 O   0  0  0  0  0  0  0  0  0  0  0  0
   15.5830   13.2600   24.6110 N   0  0  0  0  0  0  0  0  0  0  0  0
   14.8720   14.3570   25.2590 C   0  0  0  0  0  0  0  0  0  0  0  0
   15.4440   15.6680   24.7600 C   0  0  0  0  0  0  0  0  0  0  0  0
   14.6480   16.5300   23.9860 C   0  0  0  0  0  0  0  0  0  0  0  0
   15.1570   17.7380   23.5080 C   0  0  0  0  0  0  0  0  0  0  0  0
   16.4650   18.0890   23.8260 C   0  0  0  0  0  0  0  0  0  0  0  0
   17.2540   17.2420   24.6160 C   0  0  0  0  0  0  0  0  0  0  0  0
   16.7480   16.0280   25.0810 C   0  0  0  0  0  0  0  0  0  0  0  0
   27.9720   10.9660   22.3260 H   0  0  0  0  0  0  0  0  0  0  0  0
   30.4500   11.4670   20.7640 H   0  0  0  0  0  0  0  0  0  0  0  0
   29.0240    8.8340   23.1020 H   0  0  0  0  0  0  0  0  0  0  0  0
   30.4600    7.5290   24.6240 H   0  0  0  0  0  0  0  0  0  0  0  0
   32.8990    7.9350   24.6800 H   0  0  0  0  0  0  0  0  0  0  0  0
   33.9140    9.6200   23.1760 H   0  0  0  0  0  0  0  0  0  0  0  0
   32.4670   10.9150   21.6400 H   0  0  0  0  0  0  0  0  0  0  0  0
   28.5340    9.1210   20.7370 H   0  0  0  0  0  0  0  0  0  0  0  0
   29.9570    9.3300   19.6880 H   0  0  0  0  0  0  0  0  0  0  0  0
   28.5830   10.4530   19.5580 H   0  0  0  0  0  0  0  0  0  0  0  0
   29.0510   14.7390   24.2340 H   0  0  0  0  0  0  0  0  0  0  0  0
   29.0310   18.1840   25.5160 H   0  0  0  0  0  0  0  0  0  0  0  0
   29.7710   16.7870   24.6980 H   0  0  0  0  0  0  0  0  0  0  0  0
   30.4710   17.4040   26.2150 H   0  0  0  0  0  0  0  0  0  0  0  0
   25.2740   16.6260   25.3440 H   0  0  0  0  0  0  0  0  0  0  0  0
   26.4550   17.9230   25.6440 H   0  0  0  0  0  0  0  0  0  0  0  0
   25.8320   16.9550   27.0010 H   0  0  0  0  0  0  0  0  0  0  0  0
   24.8810   14.8620   25.2210 H   0  0  0  0  0  0  0  0  0  0  0  0
   26.3290   12.0740   22.3010 H   0  0  0  0  0  0  0  0  0  0  0  0
   24.7620   10.9300   23.6150 H   0  0  0  0  0  0  0  0  0  0  0  0
   22.0350   11.6250   22.7550 H   0  0  0  0  0  0  0  0  0  0  0  0
   22.0450    9.6990   21.4630 H   0  0  0  0  0  0  0  0  0  0  0  0
   22.9960    8.7850   22.6580 H   0  0  0  0  0  0  0  0  0  0  0  0
   26.3100   10.5060   20.0650 H   0  0  0  0  0  0  0  0  0  0  0  0
   24.6990   13.7860   17.8130 H   0  0  0  0  0  0  0  0  0  0  0  0
   22.1720   11.5590   20.4630 H   0  0  0  0  0  0  0  0  0  0  0  0
   21.0300    9.8460   24.0990 H   0  0  0  0  0  0  0  0  0  0  0  0
   23.6520    9.7210   25.2200 H   0  0  0  0  0  0  0  0  0  0  0  0
   21.5390   12.3280   24.8390 H   0  0  0  0  0  0  0  0  0  0  0  0
   22.4830   11.4790   26.0870 H   0  0  0  0  0  0  0  0  0  0  0  0
   20.2570   10.0270   26.2900 H   0  0  0  0  0  0  0  0  0  0  0  0
   19.5840   11.8840   29.2970 H   0  0  0  0  0  0  0  0  0  0  0  0
   19.5820   10.2740   28.5380 H   0  0  0  0  0  0  0  0  0  0  0  0
   18.4780   11.5390   27.9460 H   0  0  0  0  0  0  0  0  0  0  0  0
   18.2090    9.8360   25.5060 H   0  0  0  0  0  0  0  0  0  0  0  0
   17.2720   11.5660   23.5630 H   0  0  0  0  0  0  0  0  0  0  0  0
   14.9040   10.6150   24.3670 H   0  0  0  0  0  0  0  0  0  0  0  0
   17.0410    9.0330   22.8760 H   0  0  0  0  0  0  0  0  0  0  0  0
   16.0180   10.3090   22.1740 H   0  0  0  0  0  0  0  0  0  0  0  0
   15.2840    8.7880   22.7350 H   0  0  0  0  0  0  0  0  0  0  0  0
   16.7350    8.4940   25.3940 H   0  0  0  0  0  0  0  0  0  0  0  0
   14.9750    8.3760   25.1550 H   0  0  0  0  0  0  0  0  0  0  0  0
   15.6360    9.5230   26.3440 H   0  0  0  0  0  0  0  0  0  0  0  0
   15.5990   13.2180   23.6020 H   0  0  0  0  0  0  0  0  0  0  0  0
   14.9990   14.2890   26.3390 H   0  0  0  0  0  0  0  0  0  0  0  0
   13.8110   14.3020   25.0140 H   0  0  0  0  0  0  0  0  0  0  0  0
   13.6290   16.2540   23.7580 H   0  0  0  0  0  0  0  0  0  0  0  0
   14.5460   18.3900   22.9010 H   0  0  0  0  0  0  0  0  0  0  0  0
   16.8750   19.0200   23.4620 H   0  0  0  0  0  0  0  0  0  0  0  0
   18.2640   17.5320   24.8670 H   0  0  0  0  0  0  0  0  0  0  0  0
   17.3620   15.3750   25.6830 H   0  0  0  0  0  0  0  0  0  0  0  0
  1  2  2  0  0  0  0
  2  3  1  0  0  0  0
  2 12  1  0  0  0  0
  3  4  1  0  0  0  0
  3 61  1  0  0  0  0
  4  5  1  0  0  0  0
  4 11  1  0  0  0  0
  4 62  1  0  0  0  0
  5  6  1  0  0  0  0
  5 10  2  0  0  0  0
  6  7  2  0  0  0  0
  6 63  1  0  0  0  0
  7  8  1  0  0  0  0
  7 64  1  0  0  0  0
  8  9  2  0  0  0  0
  8 65  1  0  0  0  0
  9 10  1  0  0  0  0
  9 66  1  0  0  0  0
 10 67  1  0  0  0  0
 11 68  1  0  0  0  0
 11 69  1  0  0  0  0
 11 70  1  0  0  0  0
 12 13  1  0  0  0  0
 12 22  2  0  0  0  0
 13 14  2  0  0  0  0
 13 71  1  0  0  0  0
 14 15  1  0  0  0  0
 14 21  1  0  0  0  0
 15 16  1  0  0  0  0
 15 20  1  0  0  0  0
 16 17  2  0  0  0  0
 16 18  1  0  0  0  0
 16 19  2  0  0  0  0
 18 72  1  0  0  0  0
 18 73  1  0  0  0  0
 18 74  1  0  0  0  0
 20 75  1  0  0  0  0
 20 76  1  0  0  0  0
 20 77  1  0  0  0  0
 21 23  2  0  0  0  0
 21 78  1  0  0  0  0
 22 23  1  0  0  0  0
 22 79  1  0  0  0  0
 23 24  1  0  0  0  0
 24 25  2  0  0  0  0
 24 26  1  0  0  0  0
 26 27  1  0  0  0  0
 26 80  1  0  0  0  0
 27 28  1  0  0  0  0
 27 38  1  0  0  0  0
 27 81  1  0  0  0  0
 28 29  1  0  0  0  0
 28 82  1  0  0  0  0
 28 83  1  0  0  0  0
 29 30  1  0  0  0  0
 30 31  1  0  0  0  0
 30 37  2  0  0  0  0
 31 32  2  0  0  0  0
 31 84  1  0  0  0  0
 32 33  1  0  0  0  0
 32 34  1  0  0  0  0
 34 35  2  0  0  0  0
 34 85  1  0  0  0  0
 35 36  1  0  0  0  0
 35 37  1  0  0  0  0
 37 86  1  0  0  0  0
 38 39  1  0  0  0  0
 38 40  1  0  0  0  0
 38 87  1  0  0  0  0
 39 88  1  0  0  0  0
 40 41  1  0  0  0  0
 40 89  1  0  0  0  0
 40 90  1  0  0  0  0
 41 42  1  0  0  0  0
 41 44  1  0  0  0  0
 41 91  1  0  0  0  0
 42 43  1  0  0  0  0
 43 92  1  0  0  0  0
 43 93  1  0  0  0  0
 43 94  1  0  0  0  0
 44 45  2  0  0  0  0
 44 46  1  0  0  0  0
 46 47  1  0  0  0  0
 46 95  1  0  0  0  0
 47 48  1  0  0  0  0
 47 51  1  0  0  0  0
 47 96  1  0  0  0  0
 48 49  1  0  0  0  0
 48 50  1  0  0  0  0
 48 97  1  0  0  0  0
 49 98  1  0  0  0  0
 49 99  1  0  0  0  0
 49100  1  0  0  0  0
 50101  1  0  0  0  0
 50102  1  0  0  0  0
 50103  1  0  0  0  0
 51 52  2  0  0  0  0
 51 53  1  0  0  0  0
 53 54  1  0  0  0  0
 53104  1  0  0  0  0
 54 55  1  0  0  0  0
 54105  1  0  0  0  0
 54106  1  0  0  0  0
 55 56  1  0  0  0  0
 55 60  2  0  0  0  0
 56 57  2  0  0  0  0
 56107  1  0  0  0  0
 57 58  1  0  0  0  0
 57108  1  0  0  0  0
 58 59  2  0  0  0  0
 58109  1  0  0  0  0
 59 60  1  0  0  0  0
 59110  1  0  0  0  0
 60111  1  0  0  0  0
M  END
>  <PARENT_CMPD_ID>
3IXJ

>  <STANDARD_TYPE>
Ki

>  <RELATION>
=

>  <STANDARD_VALUE>
0.001

>  <STANDARD_UNITS>
uM

>  <COMPOUND_KEY>
1d

>  <PUBMED_ID>
20128595

>  <JOURNAL>
J.Med.Chem.

>  <YEAR>
2010

>  <VOLUME>
53

>  <FIRST_PAGE>
1458

>  <Company>
Arrhenius

>  <Resolution>
2.2

>  <idx>
236

>  <Model>
Test

>  <target>
9

>  <des_pred_mlr>
8.6018896

>  <RF_Canvas>
7.5880046

>  <DNN_Canvas>
7.3136573

>  <pred_CoMFA>
8.4968996

>  <pred_COMSIA>
9.8174

>  <pred_abm5>
8.7602034

>  <pred_ff8>
8.1432247

>  <pred_gau6>
9.235076

>  <CID>
BACE_236

>  <RF_canvas>
1

>  <DNN_canvas>
1

$$$$
1FKN_150
  MOE2015           3D

125125  0  0  1  0  0  0  0  0999 V2000
   32.6240   15.7110   20.7670 N   0  3  0  0  0  0  0  0  0  0  0  0
   31.7650   15.4120   21.9570 C   0  0  3  0  0  0  0  0  0  0  0  0
   30.4040   14.8500   21.5150 C   0  0  0  0  0  0  0  0  0  0  0  0
   29.8570   15.2670   20.5010 O   0  0  0  0  0  0  0  0  0  0  0  0
   31.5180   16.6850   22.7760 C   0  0  0  0  0  0  0  0  0  0  0  0
   30.8880   16.4150   24.1520 C   0  0  0  0  0  0  0  0  0  0  0  0
   30.5940   17.6780   24.9430 C   0  0  0  0  0  0  0  0  0  0  0  0
   31.1850   18.7360   24.6090 O   0  0  0  0  0  0  0  0  0  0  0  0
   29.7910   17.6230   25.9020 O   0  5  0  0  0  0  0  0  0  0  0  0
   29.8750   13.8860   22.2520 N   0  0  0  0  0  0  0  0  0  0  0  0
   28.5570   13.3610   21.9440 C   0  0  3  0  0  0  0  0  0  0  0  0
   27.7150   13.5220   23.1830 C   0  0  0  0  0  0  0  0  0  0  0  0
   28.2170   13.4880   24.3190 O   0  0  0  0  0  0  0  0  0  0  0  0
   28.5530   11.8580   21.5170 C   0  0  0  0  0  0  0  0  0  0  0  0
   28.8570   11.7450   20.0010 C   0  0  0  0  0  0  0  0  0  0  0  0
   29.5550   11.0410   22.3570 C   0  0  0  0  0  0  0  0  0  0  0  0
   26.4310   13.7710   22.9610 N   0  0  0  0  0  0  0  0  0  0  0  0
   25.4680   13.9060   24.0350 C   0  0  3  0  0  0  0  0  0  0  0  0
   24.1810   13.2950   23.5140 C   0  0  0  0  0  0  0  0  0  0  0  0
   23.1920   13.9970   23.2610 O   0  0  0  0  0  0  0  0  0  0  0  0
   25.2650   15.3810   24.3840 C   0  0  0  0  0  0  0  0  0  0  0  0
   26.3750   15.9130   25.2650 C   0  0  0  0  0  0  0  0  0  0  0  0
   26.4080   15.6220   26.4560 O   0  0  0  0  0  0  0  0  0  0  0  0
   27.3030   16.6870   24.6740 N   0  0  0  0  0  0  0  0  0  0  0  0
   23.2040   11.7370   19.7520 C   0  0  0  0  0  0  0  0  0  0  0  0
   25.1900   10.1510   19.7660 C   0  0  0  0  0  0  0  0  0  0  0  0
   24.2760   11.0760   20.6220 C   0  0  0  0  0  0  0  0  0  0  0  0
   23.5790   10.2900   21.7490 C   0  0  0  0  0  0  0  0  0  0  0  0
   24.1930   11.9760   23.3800 N   0  0  0  0  0  0  0  0  0  0  0  0
   23.0590   11.2380   22.8470 C   0  0  3  0  0  0  0  0  0  0  0  0
   22.2880   10.4650   23.9360 C   0  0  3  0  0  0  0  0  0  0  0  0
   23.0940    9.3940   24.4610 O   0  0  0  0  0  0  0  0  0  0  0  0
   21.8460   11.3950   25.0810 C   0  0  0  0  0  0  0  0  0  0  0  0
   20.6030   10.9420   25.8510 C   0  0  3  0  0  0  0  0  0  0  0  0
   20.6070   11.5230   27.2660 C   0  0  0  0  0  0  0  0  0  0  0  0
   19.3480   11.4130   25.1010 C   0  0  0  0  0  0  0  0  0  0  0  0
   19.2880   12.5840   24.6850 O   0  0  0  0  0  0  0  0  0  0  0  0
   18.3920   10.4930   24.9010 N   0  0  0  0  0  0  0  0  0  0  0  0
   17.1000   10.8010   24.2810 C   0  0  3  0  0  0  0  0  0  0  0  0
   16.5090   11.8470   25.2120 C   0  0  0  0  0  0  0  0  0  0  0  0
   16.4710   11.6780   26.4660 O   0  0  0  0  0  0  0  0  0  0  0  0
   16.2330    9.5680   24.1920 C   0  0  0  0  0  0  0  0  0  0  0  0
   15.8950   12.9160   24.5570 N   0  0  0  0  0  0  0  0  0  0  0  0
   15.5010   14.2340   25.1570 C   0  0  3  0  0  0  0  0  0  0  0  0
   14.4930   14.4410   26.2630 C   0  0  0  0  0  0  0  0  0  0  0  0
   13.2800   14.2860   26.2610 O   0  0  0  0  0  0  0  0  0  0  0  0
   15.3950   15.2980   24.0550 C   0  0  0  0  0  0  0  0  0  0  0  0
   16.4860   16.3600   24.2430 C   0  0  0  0  0  0  0  0  0  0  0  0
   15.9710   17.8060   24.2730 C   0  0  0  0  0  0  0  0  0  0  0  0
   15.0120   18.1080   23.5320 O   0  0  0  0  0  0  0  0  0  0  0  0
   16.5250   18.6230   25.0500 O   0  5  0  0  0  0  0  0  0  0  0  0
   15.4110   14.8300   27.2360 N   0  0  0  0  0  0  0  0  0  0  0  0
   15.6750   15.2560   28.6360 C   0  0  3  0  0  0  0  0  0  0  0  0
   14.7560   14.6000   29.6810 C   0  0  0  0  0  0  0  0  0  0  0  0
   14.0830   13.5510   29.4860 O   0  0  0  0  0  0  0  0  0  0  0  0
   15.7090   16.7530   28.7330 C   0  0  0  0  0  0  0  0  0  0  0  0
   14.3220   17.1930   28.8490 C   0  0  0  0  0  0  0  0  0  0  0  0
   13.3710   16.5850   28.0470 C   0  0  0  0  0  0  0  0  0  0  0  0
   13.9480   18.1920   29.7320 C   0  0  0  0  0  0  0  0  0  0  0  0
   12.0360   16.9710   28.1180 C   0  0  0  0  0  0  0  0  0  0  0  0
   12.6230   18.5690   29.8370 C   0  0  0  0  0  0  0  0  0  0  0  0
   11.6750   17.9570   29.0270 C   0  0  0  0  0  0  0  0  0  0  0  0
   14.7140   15.0390   30.8670 O   0  5  0  0  0  0  0  0  0  0  0  0
   32.7760   14.8630   20.2400 H   0  0  0  0  0  0  0  0  0  0  0  0
   33.5120   16.0790   21.0770 H   0  0  0  0  0  0  0  0  0  0  0  0
   32.1630   16.3930   20.1820 H   0  0  0  0  0  0  0  0  0  0  0  0
   32.2900   14.6750   22.5650 H   0  0  0  0  0  0  0  0  0  0  0  0
   30.8490   17.3340   22.2110 H   0  0  0  0  0  0  0  0  0  0  0  0
   32.4730   17.1890   22.9260 H   0  0  0  0  0  0  0  0  0  0  0  0
   31.5750   15.7980   24.7310 H   0  0  0  0  0  0  0  0  0  0  0  0
   29.9530   15.8760   24.0030 H   0  0  0  0  0  0  0  0  0  0  0  0
   30.3920   13.5130   23.0350 H   0  0  0  0  0  0  0  0  0  0  0  0
   28.1680   13.9150   21.0900 H   0  0  0  0  0  0  0  0  0  0  0  0
   27.5640   11.4390   21.7030 H   0  0  0  0  0  0  0  0  0  0  0  0
   29.8440   12.1600   19.7960 H   0  0  0  0  0  0  0  0  0  0  0  0
   28.1060   12.2990   19.4380 H   0  0  0  0  0  0  0  0  0  0  0  0
   28.8340   10.6970   19.7030 H   0  0  0  0  0  0  0  0  0  0  0  0
   30.5620   11.4280   22.2000 H   0  0  0  0  0  0  0  0  0  0  0  0
   29.5160    9.9950   22.0530 H   0  0  0  0  0  0  0  0  0  0  0  0
   29.2950   11.1220   23.4130 H   0  0  0  0  0  0  0  0  0  0  0  0
   26.1130   13.8700   22.0080 H   0  0  0  0  0  0  0  0  0  0  0  0
   25.8040   13.4080   24.9450 H   0  0  0  0  0  0  0  0  0  0  0  0
   24.3160   15.4910   24.9090 H   0  0  0  0  0  0  0  0  0  0  0  0
   25.2400   15.9610   23.4610 H   0  0  0  0  0  0  0  0  0  0  0  0
   28.0710   17.0570   25.2150 H   0  0  0  0  0  0  0  0  0  0  0  0
   27.2320   16.8980   23.6890 H   0  0  0  0  0  0  0  0  0  0  0  0
   23.6830   12.2980   18.9490 H   0  0  0  0  0  0  0  0  0  0  0  0
   22.6070   12.4150   20.3630 H   0  0  0  0  0  0  0  0  0  0  0  0
   22.5590   10.9690   19.3250 H   0  0  0  0  0  0  0  0  0  0  0  0
   25.6660   10.7370   18.9800 H   0  0  0  0  0  0  0  0  0  0  0  0
   24.5880    9.3610   19.3160 H   0  0  0  0  0  0  0  0  0  0  0  0
   25.9550    9.7070   20.4020 H   0  0  0  0  0  0  0  0  0  0  0  0
   24.9180   11.8390   21.0610 H   0  0  0  0  0  0  0  0  0  0  0  0
   24.2910    9.5920   22.1890 H   0  0  0  0  0  0  0  0  0  0  0  0
   22.7390    9.7360   21.3300 H   0  0  0  0  0  0  0  0  0  0  0  0
   25.0190   11.4660   23.6580 H   0  0  0  0  0  0  0  0  0  0  0  0
   22.3420   11.9450   22.4290 H   0  0  0  0  0  0  0  0  0  0  0  0
   21.3950   10.0470   23.4710 H   0  0  0  0  0  0  0  0  0  0  0  0
   23.8720    9.7870   24.8640 H   0  0  0  0  0  0  0  0  0  0  0  0
   21.6390   12.3770   24.6560 H   0  0  0  0  0  0  0  0  0  0  0  0
   22.6710   11.4720   25.7890 H   0  0  0  0  0  0  0  0  0  0  0  0
   20.6060    9.8540   25.9240 H   0  0  0  0  0  0  0  0  0  0  0  0
   20.6040   12.6120   27.2120 H   0  0  0  0  0  0  0  0  0  0  0  0
   21.5000   11.1880   27.7940 H   0  0  0  0  0  0  0  0  0  0  0  0
   19.7200   11.1840   27.8010 H   0  0  0  0  0  0  0  0  0  0  0  0
   18.5710    9.5420   25.1920 H   0  0  0  0  0  0  0  0  0  0  0  0
   17.1860   11.1570   23.2540 H   0  0  0  0  0  0  0  0  0  0  0  0
   16.0970    9.1470   25.1880 H   0  0  0  0  0  0  0  0  0  0  0  0
   16.7140    8.8310   23.5480 H   0  0  0  0  0  0  0  0  0  0  0  0
   15.2620    9.8360   23.7750 H   0  0  0  0  0  0  0  0  0  0  0  0
   15.6950   12.7890   23.5750 H   0  0  0  0  0  0  0  0  0  0  0  0
   16.3440   14.3200   25.8430 H   0  0  0  0  0  0  0  0  0  0  0  0
   14.4160   15.7740   24.1060 H   0  0  0  0  0  0  0  0  0  0  0  0
   15.5180   14.8230   23.0820 H   0  0  0  0  0  0  0  0  0  0  0  0
   17.1950   16.2690   23.4200 H   0  0  0  0  0  0  0  0  0  0  0  0
   16.9960   16.1610   25.1860 H   0  0  0  0  0  0  0  0  0  0  0  0
   16.3130   14.8160   26.7810 H   0  0  0  0  0  0  0  0  0  0  0  0
   16.6650   14.8810   28.8960 H   0  0  0  0  0  0  0  0  0  0  0  0
   16.1650   17.1780   27.8390 H   0  0  0  0  0  0  0  0  0  0  0  0
   16.2760   17.0610   29.6120 H   0  0  0  0  0  0  0  0  0  0  0  0
   13.6680   15.8050   27.3610 H   0  0  0  0  0  0  0  0  0  0  0  0
   14.6950   18.6790   30.3410 H   0  0  0  0  0  0  0  0  0  0  0  0
   11.2950   16.5130   27.4790 H   0  0  0  0  0  0  0  0  0  0  0  0
   12.3270   19.3320   30.5420 H   0  0  0  0  0  0  0  0  0  0  0  0
   10.6390   18.2530   29.1050 H   0  0  0  0  0  0  0  0  0  0  0  0
  1  2  1  0  0  0  0
  1 64  1  0  0  0  0
  1 65  1  0  0  0  0
  1 66  1  0  0  0  0
  2  3  1  0  0  0  0
  2  5  1  0  0  0  0
  2 67  1  0  0  0  0
  3  4  2  0  0  0  0
  3 10  1  0  0  0  0
  5  6  1  0  0  0  0
  5 68  1  0  0  0  0
  5 69  1  0  0  0  0
  6  7  1  0  0  0  0
  6 70  1  0  0  0  0
  6 71  1  0  0  0  0
  7  8  2  0  0  0  0
  7  9  1  0  0  0  0
 10 11  1  0  0  0  0
 10 72  1  0  0  0  0
 11 12  1  0  0  0  0
 11 14  1  0  0  0  0
 11 73  1  0  0  0  0
 12 13  2  0  0  0  0
 12 17  1  0  0  0  0
 14 15  1  0  0  0  0
 14 16  1  0  0  0  0
 14 74  1  0  0  0  0
 15 75  1  0  0  0  0
 15 76  1  0  0  0  0
 15 77  1  0  0  0  0
 16 78  1  0  0  0  0
 16 79  1  0  0  0  0
 16 80  1  0  0  0  0
 17 18  1  0  0  0  0
 17 81  1  0  0  0  0
 18 19  1  0  0  0  0
 18 21  1  0  0  0  0
 18 82  1  0  0  0  0
 19 20  2  0  0  0  0
 19 29  1  0  0  0  0
 21 22  1  0  0  0  0
 21 83  1  0  0  0  0
 21 84  1  0  0  0  0
 22 23  2  0  0  0  0
 22 24  1  0  0  0  0
 24 85  1  0  0  0  0
 24 86  1  0  0  0  0
 25 27  1  0  0  0  0
 25 87  1  0  0  0  0
 25 88  1  0  0  0  0
 25 89  1  0  0  0  0
 26 27  1  0  0  0  0
 26 90  1  0  0  0  0
 26 91  1  0  0  0  0
 26 92  1  0  0  0  0
 27 28  1  0  0  0  0
 27 93  1  0  0  0  0
 28 30  1  0  0  0  0
 28 94  1  0  0  0  0
 28 95  1  0  0  0  0
 29 30  1  0  0  0  0
 29 96  1  0  0  0  0
 30 31  1  0  0  0  0
 30 97  1  0  0  0  0
 31 32  1  0  0  0  0
 31 33  1  0  0  0  0
 31 98  1  0  0  0  0
 32 99  1  0  0  0  0
 33 34  1  0  0  0  0
 33100  1  0  0  0  0
 33101  1  0  0  0  0
 34 35  1  0  0  0  0
 34 36  1  0  0  0  0
 34102  1  0  0  0  0
 35103  1  0  0  0  0
 35104  1  0  0  0  0
 35105  1  0  0  0  0
 36 37  2  0  0  0  0
 36 38  1  0  0  0  0
 38 39  1  0  0  0  0
 38106  1  0  0  0  0
 39 40  1  0  0  0  0
 39 42  1  0  0  0  0
 39107  1  0  0  0  0
 40 41  2  0  0  0  0
 40 43  1  0  0  0  0
 42108  1  0  0  0  0
 42109  1  0  0  0  0
 42110  1  0  0  0  0
 43 44  1  0  0  0  0
 43111  1  0  0  0  0
 44 45  1  0  0  0  0
 44 47  1  0  0  0  0
 44112  1  0  0  0  0
 45 46  2  0  0  0  0
 45 52  1  0  0  0  0
 47 48  1  0  0  0  0
 47113  1  0  0  0  0
 47114  1  0  0  0  0
 48 49  1  0  0  0  0
 48115  1  0  0  0  0
 48116  1  0  0  0  0
 49 50  2  0  0  0  0
 49 51  1  0  0  0  0
 52 53  1  0  0  0  0
 52117  1  0  0  0  0
 53 54  1  0  0  0  0
 53 56  1  0  0  0  0
 53118  1  0  0  0  0
 54 55  2  0  0  0  0
 54 63  1  0  0  0  0
 56 57  1  0  0  0  0
 56119  1  0  0  0  0
 56120  1  0  0  0  0
 57 58  2  0  0  0  0
 57 59  1  0  0  0  0
 58 60  1  0  0  0  0
 58121  1  0  0  0  0
 59 61  2  0  0  0  0
 59122  1  0  0  0  0
 60 62  2  0  0  0  0
 60123  1  0  0  0  0
 61 62  1  0  0  0  0
 61124  1  0  0  0  0
 62125  1  0  0  0  0
M  CHG  1   1   1
M  CHG  1   9  -1
M  CHG  1  51  -1
M  CHG  1  63  -1
M  END
>  <PARENT_CMPD_ID>
1FKN

>  <STANDARD_TYPE>
Ki

>  <RELATION>
=

>  <STANDARD_VALUE>
0.001

>  <STANDARD_UNITS>
uM

>  <COMPOUND_KEY>
OM99-2

>  <PUBMED_ID>
11021803

>  <JOURNAL>
Science

>  <YEAR>
2000

>  <VOLUME>
290

>  <FIRST_PAGE>
150

>  <Company>
OMRF

>  <Resolution>
1.9

>  <idx>
237

>  <Model>
Test

>  <target>
9

>  <des_pred_mlr>
7.7694998

>  <RF_Canvas>
7.3187885

>  <DNN_Canvas>
6.5663853

>  <pred_CoMFA>
7.0309

>  <pred_COMSIA>
6.4446001

>  <pred_abm5>
6.4704022

>  <pred_ff8>
9.3135796

>  <pred_gau6>
7.0604324

>  <CID>
BACE_237

>  <RF_canvas>
0

>  <DNN_canvas>
1

$$$$
4H3F_9331
  MOE2015           3D

 55 59  0  0  1  0  0  0  0  0999 V2000
   21.8370   10.3880   21.3160 C   0  0  3  0  0  0  0  0  0  0  0  0
   21.1460   11.6740   21.8130 C   0  0  3  0  0  0  0  0  0  0  0  0
   21.2610   12.4800   21.0880 H   0  0  0  0  0  0  0  0  0  0  0  0
   22.4420   11.3600   23.9330 N   0  0  0  0  0  0  0  0  0  0  0  0
   22.4590    9.9880   23.7060 C   0  0  0  0  0  0  0  0  0  0  0  0
   21.7900   12.2640   23.0940 C   0  0  0  0  0  0  0  0  0  0  0  0
   22.1530    9.5040   22.4540 N   0  0  0  0  0  0  0  0  0  0  0  0
   23.0820   10.7590   20.5300 C   0  0  0  0  0  0  0  0  0  0  0  0
   19.5120   10.1650   21.0850 N   0  0  0  0  0  0  0  0  0  0  0  0
   20.7610    9.7200   20.4640 C   0  0  0  0  0  0  0  0  0  0  0  0
   20.8510    8.6340   20.5030 H   0  0  0  0  0  0  0  0  0  0  0  0
   20.8220   10.0530   19.4280 H   0  0  0  0  0  0  0  0  0  0  0  0
   19.6700   11.3020   22.0010 C   0  0  0  0  0  0  0  0  0  0  0  0
   19.0160   12.1280   21.7210 H   0  0  0  0  0  0  0  0  0  0  0  0
   19.4650   11.0100   23.0310 H   0  0  0  0  0  0  0  0  0  0  0  0
   24.4600   10.6310   20.9530 C   0  0  0  0  0  0  0  0  0  0  0  0
   24.7460   10.2370   21.9170 H   0  0  0  0  0  0  0  0  0  0  0  0
   25.4020   11.0700   19.9870 C   0  0  0  0  0  0  0  0  0  0  0  0
   23.0660   11.4270   18.9590 S   0  0  0  0  0  0  0  0  0  0  0  0
   24.7610   11.5400   18.8270 C   0  0  0  0  0  0  0  0  0  0  0  0
   25.2780   11.9250   17.9610 H   0  0  0  0  0  0  0  0  0  0  0  0
   18.3160    9.5510   20.7960 C   0  0  0  0  0  0  0  0  0  0  0  0
   29.7610    9.2830   23.7170 N   0  0  0  0  0  0  0  0  0  0  0  0
   22.7570    9.1440   24.6860 N   0  0  0  0  0  0  0  0  0  0  0  0
   22.7590    8.1490   24.5120 H   0  0  0  0  0  0  0  0  0  0  0  0
   22.9820    9.4970   25.6050 H   0  0  0  0  0  0  0  0  0  0  0  0
   26.8930   11.0430   20.2100 C   0  0  0  0  0  0  0  0  0  0  0  0
   29.3380    9.7870   22.7710 C   0  0  0  0  0  0  0  0  0  0  0  0
   21.7170   13.4690   23.3150 O   0  0  0  0  0  0  0  0  0  0  0  0
   18.3700    8.5700   19.8600 N   0  0  0  0  0  0  0  0  0  0  0  0
   27.4490   10.4370   21.3620 C   0  0  0  0  0  0  0  0  0  0  0  0
   26.7910    9.9790   22.0860 H   0  0  0  0  0  0  0  0  0  0  0  0
   23.1520   11.9100   25.1240 C   0  0  0  0  0  0  0  0  0  0  0  0
   23.6110   11.0940   25.6820 H   0  0  0  0  0  0  0  0  0  0  0  0
   22.4390   12.4320   25.7630 H   0  0  0  0  0  0  0  0  0  0  0  0
   23.9240   12.6060   24.7970 H   0  0  0  0  0  0  0  0  0  0  0  0
   28.8410   10.4160   21.5880 C   0  0  0  0  0  0  0  0  0  0  0  0
   27.7950   11.6370   19.2840 C   0  0  0  0  0  0  0  0  0  0  0  0
   27.4050   12.1120   18.3960 H   0  0  0  0  0  0  0  0  0  0  0  0
   17.0850    9.8990   21.4180 C   0  0  0  0  0  0  0  0  0  0  0  0
   17.0410   10.6800   22.1620 H   0  0  0  0  0  0  0  0  0  0  0  0
   29.1970   11.6180   19.5050 C   0  0  0  0  0  0  0  0  0  0  0  0
   29.8600   12.0740   18.7850 H   0  0  0  0  0  0  0  0  0  0  0  0
   17.2610    7.8950   19.4900 C   0  0  0  0  0  0  0  0  0  0  0  0
   29.7330   11.0050   20.6630 C   0  0  0  0  0  0  0  0  0  0  0  0
   30.7990   10.9880   20.8360 H   0  0  0  0  0  0  0  0  0  0  0  0
   15.9200    9.1930   21.0340 C   0  0  0  0  0  0  0  0  0  0  0  0
   14.9690    9.4300   21.4870 H   0  0  0  0  0  0  0  0  0  0  0  0
   16.0060    8.1730   20.0530 C   0  0  0  0  0  0  0  0  0  0  0  0
   15.1280    7.6240   19.7470 H   0  0  0  0  0  0  0  0  0  0  0  0
   17.3380    6.8900   18.5280 O   0  0  0  0  0  0  0  0  0  0  0  0
   18.6460    6.6620   18.0020 C   0  0  0  0  0  0  0  0  0  0  0  0
   18.6060    5.8630   17.2620 H   0  0  0  0  0  0  0  0  0  0  0  0
   19.3180    6.3740   18.8110 H   0  0  0  0  0  0  0  0  0  0  0  0
   19.0130    7.5750   17.5320 H   0  0  0  0  0  0  0  0  0  0  0  0
  1  2  1  0  0  0  0
  1  7  1  0  0  0  0
  1  8  1  0  0  0  0
  1 10  1  0  0  0  0
  2  3  1  0  0  0  0
  2  6  1  0  0  0  0
  2 13  1  0  0  0  0
  4  5  1  0  0  0  0
  4  6  1  0  0  0  0
  4 33  1  0  0  0  0
  5  7  2  0  0  0  0
  5 24  1  0  0  0  0
  6 29  2  0  0  0  0
  8 16  2  0  0  0  0
  8 19  1  0  0  0  0
  9 10  1  0  0  0  0
  9 13  1  0  0  0  0
  9 22  1  0  0  0  0
 10 11  1  0  0  0  0
 10 12  1  0  0  0  0
 13 14  1  0  0  0  0
 13 15  1  0  0  0  0
 16 17  1  0  0  0  0
 16 18  1  0  0  0  0
 18 20  2  0  0  0  0
 18 27  1  0  0  0  0
 19 20  1  0  0  0  0
 20 21  1  0  0  0  0
 22 30  2  0  0  0  0
 22 40  1  0  0  0  0
 23 28  3  0  0  0  0
 24 25  1  0  0  0  0
 24 26  1  0  0  0  0
 27 31  2  0  0  0  0
 27 38  1  0  0  0  0
 28 37  1  0  0  0  0
 30 44  1  0  0  0  0
 31 32  1  0  0  0  0
 31 37  1  0  0  0  0
 33 34  1  0  0  0  0
 33 35  1  0  0  0  0
 33 36  1  0  0  0  0
 37 45  2  0  0  0  0
 38 39  1  0  0  0  0
 38 42  2  0  0  0  0
 40 41  1  0  0  0  0
 40 47  2  0  0  0  0
 42 43  1  0  0  0  0
 42 45  1  0  0  0  0
 44 49  2  0  0  0  0
 44 51  1  0  0  0  0
 45 46  1  0  0  0  0
 47 48  1  0  0  0  0
 47 49  1  0  0  0  0
 49 50  1  0  0  0  0
 51 52  1  0  0  0  0
 52 53  1  0  0  0  0
 52 54  1  0  0  0  0
 52 55  1  0  0  0  0
M  END
>  <PARENT_CMPD_ID>
4H3F

>  <STANDARD_TYPE>
Ki

>  <RELATION>
=

>  <STANDARD_VALUE>
0.001

>  <STANDARD_UNITS>
uM

>  <COMPOUND_KEY>
40

>  <PUBMED_ID>
22989333

>  <JOURNAL>
J.Med.Chem.

>  <YEAR>
2012

>  <VOLUME>
55

>  <FIRST_PAGE>
9331

>  <Company>
Merck

>  <Resolution>
1.7

>  <idx>
238

>  <Model>
Test

>  <target>
9

>  <des_pred_mlr>
6.4195299

>  <RF_Canvas>
7.35355

>  <DNN_Canvas>
7.5389786

>  <pred_CoMFA>
7.7221999

>  <pred_COMSIA>
6.835

>  <pred_abm5>
7.2453995

>  <pred_ff8>
6.7658505

>  <pred_gau6>
7.0591083

>  <CID>
BACE_238

>  <RF_canvas>
1

>  <DNN_canvas>
1

$$$$
2P4J_2399
  MOE2015           3D

104105  0  0  1  0  0  0  0  0999 V2000
   16.5040   12.0380   26.7370 O   0  0  0  0  0  0  0  0  0  0  0  0
   32.3220   10.2430   22.2960 C   0  0  0  0  0  0  0  0  0  0  0  0
   33.1570    9.4550   23.1190 C   0  0  0  0  0  0  0  0  0  0  0  0
   32.5800    8.5330   24.0260 C   0  0  0  0  0  0  0  0  0  0  0  0
   31.1680    8.4000   24.1100 C   0  0  0  0  0  0  0  0  0  0  0  0
   30.3300    9.1900   23.2860 C   0  0  0  0  0  0  0  0  0  0  0  0
   30.9000   10.1180   22.3690 C   0  0  0  0  0  0  0  0  0  0  0  0
   30.0190   17.3430   25.7530 C   0  0  0  0  0  0  0  0  0  0  0  0
   29.0310   13.0950   22.3300 C   0  0  0  0  0  0  0  0  0  0  0  0
   24.1290   13.1920   23.4210 C   0  0  0  0  0  0  0  0  0  0  0  0
   28.1200   14.7370   24.0360 C   0  0  0  0  0  0  0  0  0  0  0  0
   25.5000   13.7290   23.6580 C   0  0  0  0  0  0  0  0  0  0  0  0
   19.3880   11.3180   25.1900 C   0  0  0  0  0  0  0  0  0  0  0  0
   22.8490   11.1230   22.7930 C   0  0  3  0  0  0  0  0  0  0  0  0
   22.3340   10.2460   23.9680 C   0  0  3  0  0  0  0  0  0  0  0  0
   23.1940   10.3130   21.4910 C   0  0  0  0  0  0  0  0  0  0  0  0
   24.1490   11.0160   20.4610 C   0  0  0  0  0  0  0  0  0  0  0  0
   24.7080   10.0210   19.4360 C   0  0  0  0  0  0  0  0  0  0  0  0
   30.0340   11.0020   21.4450 C   0  0  3  0  0  0  0  0  0  0  0  0
   29.2450   10.2260   20.3730 C   0  0  0  0  0  0  0  0  0  0  0  0
   29.0280   11.7560   22.1860 N   0  0  0  0  0  0  0  0  0  0  0  0
   29.9130   13.8040   21.8170 O   0  0  0  0  0  0  0  0  0  0  0  0
   27.9030   13.6800   23.1150 C   0  0  0  0  0  0  0  0  0  0  0  0
   27.0400   15.3070   24.7850 C   0  0  0  0  0  0  0  0  0  0  0  0
   25.7290   14.7760   24.5680 C   0  0  0  0  0  0  0  0  0  0  0  0
   26.6000   13.2120   22.9560 C   0  0  0  0  0  0  0  0  0  0  0  0
   27.2790   16.4260   25.7260 N   0  0  0  0  0  0  0  0  0  0  0  0
   26.1900   16.8240   26.6790 C   0  0  0  0  0  0  0  0  0  0  0  0
   28.8230   16.3360   26.5950 S   0  0  0  0  0  0  0  0  0  0  0  0
   28.6740   16.9390   28.0410 O   0  0  0  0  0  0  0  0  0  0  0  0
   29.3780   14.8780   26.8020 O   0  0  0  0  0  0  0  0  0  0  0  0
   23.1120   13.9130   23.4510 O   0  0  0  0  0  0  0  0  0  0  0  0
   24.0680   11.8780   23.1220 N   0  0  0  0  0  0  0  0  0  0  0  0
   23.4380   12.1310   19.6900 C   0  0  0  0  0  0  0  0  0  0  0  0
   21.9430   11.0900   25.1950 C   0  0  0  0  0  0  0  0  0  0  0  0
   20.6350   10.6800   25.8840 C   0  0  3  0  0  0  0  0  0  0  0  0
   20.7060   11.1050   27.3790 C   0  0  0  0  0  0  0  0  0  0  0  0
   23.3270    9.3380   24.4050 O   0  0  0  0  0  0  0  0  0  0  0  0
   19.4160   12.4660   24.7360 O   0  0  0  0  0  0  0  0  0  0  0  0
   18.2830   10.5590   25.1340 N   0  0  0  0  0  0  0  0  0  0  0  0
   17.0120   11.0390   24.5390 C   0  0  3  0  0  0  0  0  0  0  0  0
   16.0520    9.8110   24.2840 C   0  0  0  0  0  0  0  0  0  0  0  0
   14.7490   10.2440   23.5770 C   0  0  0  0  0  0  0  0  0  0  0  0
   15.6170    9.0390   25.5560 C   0  0  0  0  0  0  0  0  0  0  0  0
   16.4730   12.1690   25.5020 C   0  0  0  0  0  0  0  0  0  0  0  0
   16.0120   13.2750   24.9020 N   0  0  0  0  0  0  0  0  0  0  0  0
   15.4900   14.4460   25.6120 C   0  0  0  0  0  0  0  0  0  0  0  0
   14.1050   14.7330   25.0410 C   0  0  0  0  0  0  0  0  0  0  0  0
   16.4470   15.6140   25.3590 C   0  0  0  0  0  0  0  0  0  0  0  0
   32.7620   10.9470   21.6050 H   0  0  0  0  0  0  0  0  0  0  0  0
   34.2310    9.5550   23.0570 H   0  0  0  0  0  0  0  0  0  0  0  0
   33.2160    7.9290   24.6560 H   0  0  0  0  0  0  0  0  0  0  0  0
   30.7330    7.6950   24.8030 H   0  0  0  0  0  0  0  0  0  0  0  0
   29.2570    9.0880   23.3530 H   0  0  0  0  0  0  0  0  0  0  0  0
   29.6180   18.3480   25.6190 H   0  0  0  0  0  0  0  0  0  0  0  0
   30.2400   16.9070   24.7790 H   0  0  0  0  0  0  0  0  0  0  0  0
   30.9330   17.3930   26.3450 H   0  0  0  0  0  0  0  0  0  0  0  0
   29.1200   15.1200   24.1750 H   0  0  0  0  0  0  0  0  0  0  0  0
   22.0050   11.7900   22.6150 H   0  0  0  0  0  0  0  0  0  0  0  0
   21.4630    9.7200   23.5770 H   0  0  0  0  0  0  0  0  0  0  0  0
   22.2570   10.0950   20.9790 H   0  0  0  0  0  0  0  0  0  0  0  0
   23.6660    9.3800   21.7970 H   0  0  0  0  0  0  0  0  0  0  0  0
   24.9610   11.4380   21.0530 H   0  0  0  0  0  0  0  0  0  0  0  0
   23.8890    9.6050   18.8490 H   0  0  0  0  0  0  0  0  0  0  0  0
   25.2270    9.2160   19.9570 H   0  0  0  0  0  0  0  0  0  0  0  0
   25.4050   10.5350   18.7740 H   0  0  0  0  0  0  0  0  0  0  0  0
   30.7740   11.6480   20.9710 H   0  0  0  0  0  0  0  0  0  0  0  0
   28.5090    9.5840   20.8570 H   0  0  0  0  0  0  0  0  0  0  0  0
   29.9320    9.6140   19.7880 H   0  0  0  0  0  0  0  0  0  0  0  0
   28.7360   10.9310   19.7150 H   0  0  0  0  0  0  0  0  0  0  0  0
   28.2780   11.2380   22.6210 H   0  0  0  0  0  0  0  0  0  0  0  0
   24.8950   15.1890   25.1160 H   0  0  0  0  0  0  0  0  0  0  0  0
   26.4270   12.4090   22.2550 H   0  0  0  0  0  0  0  0  0  0  0  0
   25.2420   16.8790   26.1440 H   0  0  0  0  0  0  0  0  0  0  0  0
   26.4220   17.7980   27.1090 H   0  0  0  0  0  0  0  0  0  0  0  0
   26.1160   16.0840   27.4750 H   0  0  0  0  0  0  0  0  0  0  0  0
   24.9390   11.3660   23.1240 H   0  0  0  0  0  0  0  0  0  0  0  0
   22.6270   11.7040   19.1000 H   0  0  0  0  0  0  0  0  0  0  0  0
   24.1490   12.6250   19.0270 H   0  0  0  0  0  0  0  0  0  0  0  0
   23.0320   12.8580   20.3940 H   0  0  0  0  0  0  0  0  0  0  0  0
   21.8430   12.1260   24.8730 H   0  0  0  0  0  0  0  0  0  0  0  0
   22.7470   11.0130   25.9270 H   0  0  0  0  0  0  0  0  0  0  0  0
   20.5200    9.5990   25.8070 H   0  0  0  0  0  0  0  0  0  0  0  0
   20.8200   12.1870   27.4440 H   0  0  0  0  0  0  0  0  0  0  0  0
   21.5590   10.6200   27.8540 H   0  0  0  0  0  0  0  0  0  0  0  0
   19.7890   10.8060   27.8860 H   0  0  0  0  0  0  0  0  0  0  0  0
   24.0660    9.8530   24.7370 H   0  0  0  0  0  0  0  0  0  0  0  0
   18.3180    9.6230   25.5120 H   0  0  0  0  0  0  0  0  0  0  0  0
   17.1190   11.4870   23.5510 H   0  0  0  0  0  0  0  0  0  0  0  0
   16.6610    9.1510   23.6660 H   0  0  0  0  0  0  0  0  0  0  0  0
   14.1790   10.9000   24.2350 H   0  0  0  0  0  0  0  0  0  0  0  0
   14.1540    9.3620   23.3400 H   0  0  0  0  0  0  0  0  0  0  0  0
   14.9940   10.7750   22.6570 H   0  0  0  0  0  0  0  0  0  0  0  0
   15.0070    9.6880   26.1840 H   0  0  0  0  0  0  0  0  0  0  0  0
   16.5010    8.7240   26.1100 H   0  0  0  0  0  0  0  0  0  0  0  0
   15.0370    8.1620   25.2680 H   0  0  0  0  0  0  0  0  0  0  0  0
   16.0250   13.3030   23.8920 H   0  0  0  0  0  0  0  0  0  0  0  0
   15.4130   14.2860   26.6870 H   0  0  0  0  0  0  0  0  0  0  0  0
   14.1810   14.8930   23.9650 H   0  0  0  0  0  0  0  0  0  0  0  0
   13.6950   15.6260   25.5130 H   0  0  0  0  0  0  0  0  0  0  0  0
   13.4480   13.8850   25.2370 H   0  0  0  0  0  0  0  0  0  0  0  0
   16.5340   15.7860   24.2860 H   0  0  0  0  0  0  0  0  0  0  0  0
   17.4280   15.3750   25.7700 H   0  0  0  0  0  0  0  0  0  0  0  0
   16.0600   16.5120   25.8410 H   0  0  0  0  0  0  0  0  0  0  0  0
  1 45  2  0  0  0  0
  2  3  1  0  0  0  0
  2  7  2  0  0  0  0
  2 50  1  0  0  0  0
  3  4  2  0  0  0  0
  3 51  1  0  0  0  0
  4  5  1  0  0  0  0
  4 52  1  0  0  0  0
  5  6  2  0  0  0  0
  5 53  1  0  0  0  0
  6  7  1  0  0  0  0
  6 54  1  0  0  0  0
  7 19  1  0  0  0  0
  8 29  1  0  0  0  0
  8 55  1  0  0  0  0
  8 56  1  0  0  0  0
  8 57  1  0  0  0  0
  9 21  1  0  0  0  0
  9 22  2  0  0  0  0
  9 23  1  0  0  0  0
 10 12  1  0  0  0  0
 10 32  2  0  0  0  0
 10 33  1  0  0  0  0
 11 23  1  0  0  0  0
 11 24  2  0  0  0  0
 11 58  1  0  0  0  0
 12 25  2  0  0  0  0
 12 26  1  0  0  0  0
 13 36  1  0  0  0  0
 13 39  2  0  0  0  0
 13 40  1  0  0  0  0
 14 15  1  0  0  0  0
 14 16  1  0  0  0  0
 14 33  1  0  0  0  0
 14 59  1  0  0  0  0
 15 35  1  0  0  0  0
 15 38  1  0  0  0  0
 15 60  1  0  0  0  0
 16 17  1  0  0  0  0
 16 61  1  0  0  0  0
 16 62  1  0  0  0  0
 17 18  1  0  0  0  0
 17 34  1  0  0  0  0
 17 63  1  0  0  0  0
 18 64  1  0  0  0  0
 18 65  1  0  0  0  0
 18 66  1  0  0  0  0
 19 20  1  0  0  0  0
 19 21  1  0  0  0  0
 19 67  1  0  0  0  0
 20 68  1  0  0  0  0
 20 69  1  0  0  0  0
 20 70  1  0  0  0  0
 21 71  1  0  0  0  0
 23 26  2  0  0  0  0
 24 25  1  0  0  0  0
 24 27  1  0  0  0  0
 25 72  1  0  0  0  0
 26 73  1  0  0  0  0
 27 28  1  0  0  0  0
 27 29  1  0  0  0  0
 28 74  1  0  0  0  0
 28 75  1  0  0  0  0
 28 76  1  0  0  0  0
 29 30  2  0  0  0  0
 29 31  2  0  0  0  0
 33 77  1  0  0  0  0
 34 78  1  0  0  0  0
 34 79  1  0  0  0  0
 34 80  1  0  0  0  0
 35 36  1  0  0  0  0
 35 81  1  0  0  0  0
 35 82  1  0  0  0  0
 36 37  1  0  0  0  0
 36 83  1  0  0  0  0
 37 84  1  0  0  0  0
 37 85  1  0  0  0  0
 37 86  1  0  0  0  0
 38 87  1  0  0  0  0
 40 41  1  0  0  0  0
 40 88  1  0  0  0  0
 41 42  1  0  0  0  0
 41 45  1  0  0  0  0
 41 89  1  0  0  0  0
 42 43  1  0  0  0  0
 42 44  1  0  0  0  0
 42 90  1  0  0  0  0
 43 91  1  0  0  0  0
 43 92  1  0  0  0  0
 43 93  1  0  0  0  0
 44 94  1  0  0  0  0
 44 95  1  0  0  0  0
 44 96  1  0  0  0  0
 45 46  1  0  0  0  0
 46 47  1  0  0  0  0
 46 97  1  0  0  0  0
 47 48  1  0  0  0  0
 47 49  1  0  0  0  0
 47 98  1  0  0  0  0
 48 99  1  0  0  0  0
 48100  1  0  0  0  0
 48101  1  0  0  0  0
 49102  1  0  0  0  0
 49103  1  0  0  0  0
 49104  1  0  0  0  0
M  END
>  <PARENT_CMPD_ID>
2P4J

>  <STANDARD_TYPE>
Ki

>  <RELATION>
=

>  <STANDARD_VALUE>
0.0011

>  <STANDARD_UNITS>
uM

>  <COMPOUND_KEY>
5d

>  <PUBMED_ID>
17432843

>  <JOURNAL>
J.Med.Chem.

>  <YEAR>
2007

>  <VOLUME>
50

>  <FIRST_PAGE>
2399

>  <Company>
Purdue

>  <Resolution>
2.5

>  <idx>
239

>  <Model>
Test

>  <target>
8.9586077

>  <des_pred_mlr>
8.41084

>  <RF_Canvas>
7.4788017

>  <DNN_Canvas>
6.8407326

>  <pred_CoMFA>
7.3239002

>  <pred_COMSIA>
8.6232004

>  <pred_abm5>
7.7695742

>  <pred_ff8>
7.3791862

>  <pred_gau6>
8.1594419

>  <CID>
BACE_239

>  <RF_canvas>
1

>  <DNN_canvas>
1

$$$$
4FRS_897
  MOE2015           3D

 43 45  0  0  1  0  0  0  0  0999 V2000
   22.4970   10.7970   20.8720 C   0  0  0  0  0  0  0  0  0  0  0  0
   24.0310   10.1130   21.3140 S   0  0  0  0  0  0  0  0  0  0  0  0
   22.6730   11.6830   19.8410 C   0  0  0  0  0  0  0  0  0  0  0  0
   24.0370   11.7910   19.4130 C   0  0  0  0  0  0  0  0  0  0  0  0
   24.3610   12.4440   18.6160 H   0  0  0  0  0  0  0  0  0  0  0  0
   24.9140   10.9560   20.1400 C   0  0  0  0  0  0  0  0  0  0  0  0
   20.5440   11.6410   22.2730 C   0  0  0  0  0  0  0  0  0  0  0  0
   20.3660   12.3830   21.4950 H   0  0  0  0  0  0  0  0  0  0  0  0
   19.5930   11.3430   22.7160 H   0  0  0  0  0  0  0  0  0  0  0  0
   21.4550   12.2410   23.3610 C   0  0  0  0  0  0  0  0  0  0  0  0
   22.2790   11.3690   24.1430 N   0  0  0  0  0  0  0  0  0  0  0  0
   22.2190    9.9750   23.9710 C   0  0  0  0  0  0  0  0  0  0  0  0
   21.5890    9.5070   22.8240 N   0  0  0  0  0  0  0  0  0  0  0  0
   21.3510    8.5270   22.7710 H   0  0  0  0  0  0  0  0  0  0  0  0
   21.2450   10.3950   21.6550 C   0  0  3  0  0  0  0  0  0  0  0  0
   20.2200    9.5980   20.8130 C   0  0  0  0  0  0  0  0  0  0  0  0
   19.9260   10.1880   19.9440 H   0  0  0  0  0  0  0  0  0  0  0  0
   19.3410    9.3820   21.4200 H   0  0  0  0  0  0  0  0  0  0  0  0
   20.6710    8.6630   20.4820 H   0  0  0  0  0  0  0  0  0  0  0  0
   21.3560   12.5610   19.1110 Cl  0  0  0  0  0  0  0  0  0  0  0  0
   26.3710   10.8700   20.0500 C   0  0  0  0  0  0  0  0  0  0  0  0
   27.1370   10.2330   21.0730 C   0  0  0  0  0  0  0  0  0  0  0  0
   26.6130    9.7240   21.8690 H   0  0  0  0  0  0  0  0  0  0  0  0
   28.5030   10.2390   21.0900 C   0  0  0  0  0  0  0  0  0  0  0  0
   29.1610   10.8750   20.0290 C   0  0  0  0  0  0  0  0  0  0  0  0
   30.2410   10.8730   20.0150 H   0  0  0  0  0  0  0  0  0  0  0  0
   28.4780   11.5130   18.9860 N   0  0  0  0  0  0  0  0  0  0  0  0
   27.1000   11.5180   19.0240 C   0  0  0  0  0  0  0  0  0  0  0  0
   26.5580   12.0340   18.2450 H   0  0  0  0  0  0  0  0  0  0  0  0
   22.6650    9.1330   24.8510 N   0  3  0  0  0  0  0  0  0  0  0  0
   23.1230    9.4700   25.6860 H   0  0  0  0  0  0  0  0  0  0  0  0
   22.5540    8.1400   24.7010 H   0  0  0  0  0  0  0  0  0  0  0  0
   21.4570   13.4420   23.5240 O   0  0  0  0  0  0  0  0  0  0  0  0
   23.1860   11.9980   25.1710 C   0  0  0  0  0  0  0  0  0  0  0  0
   23.0770   13.0820   25.1370 H   0  0  0  0  0  0  0  0  0  0  0  0
   24.2200   11.7300   24.9560 H   0  0  0  0  0  0  0  0  0  0  0  0
   22.9160   11.6370   26.1630 H   0  0  0  0  0  0  0  0  0  0  0  0
   29.2170    9.5680   22.1400 C   0  0  0  0  0  0  0  0  0  0  0  0
   29.8160    9.0070   23.0200 C   0  0  0  0  0  0  0  0  0  0  0  0
   30.5680    8.3580   24.0720 C   0  0  0  0  0  0  0  0  0  0  0  0
   29.9730    7.5510   24.5000 H   0  0  0  0  0  0  0  0  0  0  0  0
   30.8070    9.0840   24.8490 H   0  0  0  0  0  0  0  0  0  0  0  0
   31.4910    7.9500   23.6600 H   0  0  0  0  0  0  0  0  0  0  0  0
  1  2  1  0  0  0  0
  1  3  2  0  0  0  0
  1 15  1  0  0  0  0
  2  6  1  0  0  0  0
  3  4  1  0  0  0  0
  3 20  1  0  0  0  0
  4  5  1  0  0  0  0
  4  6  2  0  0  0  0
  6 21  1  0  0  0  0
  7  8  1  0  0  0  0
  7  9  1  0  0  0  0
  7 10  1  0  0  0  0
  7 15  1  0  0  0  0
 10 11  1  0  0  0  0
 10 33  2  0  0  0  0
 11 12  1  0  0  0  0
 11 34  1  0  0  0  0
 12 13  1  0  0  0  0
 12 30  2  0  0  0  0
 13 14  1  0  0  0  0
 13 15  1  0  0  0  0
 15 16  1  0  0  0  0
 16 17  1  0  0  0  0
 16 18  1  0  0  0  0
 16 19  1  0  0  0  0
 21 22  1  0  0  0  0
 21 28  2  0  0  0  0
 22 23  1  0  0  0  0
 22 24  2  0  0  0  0
 24 25  1  0  0  0  0
 24 38  1  0  0  0  0
 25 26  1  0  0  0  0
 25 27  2  0  0  0  0
 27 28  1  0  0  0  0
 28 29  1  0  0  0  0
 30 31  1  0  0  0  0
 30 32  1  0  0  0  0
 34 35  1  0  0  0  0
 34 36  1  0  0  0  0
 34 37  1  0  0  0  0
 38 39  3  0  0  0  0
 39 40  1  0  0  0  0
 40 41  1  0  0  0  0
 40 42  1  0  0  0  0
 40 43  1  0  0  0  0
M  CHG  1  30   1
M  END
>  <PARENT_CMPD_ID>
4FRS

>  <STANDARD_TYPE>
Ki

>  <RELATION>
=

>  <STANDARD_VALUE>
0.0017

>  <STANDARD_UNITS>
uM

>  <COMPOUND_KEY>
16

>  <PUBMED_ID>
23412139

>  <JOURNAL>
ACS MED.CHEM.LETT.

>  <YEAR>
2012

>  <VOLUME>
3

>  <FIRST_PAGE>
897

>  <Company>
Merck

>  <Resolution>
1.7

>  <idx>
240

>  <Model>
Test

>  <target>
8.7695513

>  <des_pred_mlr>
6.0183001

>  <RF_Canvas>
6.615067

>  <DNN_Canvas>
6.5218148

>  <pred_CoMFA>
5.5651999

>  <pred_COMSIA>
5.8248

>  <pred_abm5>
6.6993933

>  <pred_ff8>
5.4497952

>  <pred_gau6>
5.7236581

>  <CID>
BACE_240

>  <RF_canvas>
0

>  <DNN_canvas>
0

$$$$
2VKM_1031
  MOE2015           3D

 90 93  0  0  1  0  0  0  0  0999 V2000
   31.8310   10.3300   22.3830 C   0  0  0  0  0  0  0  0  0  0  0  0
   32.6330    9.5650   23.2670 C   0  0  0  0  0  0  0  0  0  0  0  0
   32.0610    8.5120   24.0200 C   0  0  0  0  0  0  0  0  0  0  0  0
   30.6820    8.2150   23.8980 C   0  0  0  0  0  0  0  0  0  0  0  0
   29.8760    8.9790   23.0140 C   0  0  0  0  0  0  0  0  0  0  0  0
   30.4530   10.0460   22.2450 C   0  0  0  0  0  0  0  0  0  0  0  0
   29.6170   10.9040   21.2810 C   0  0  3  0  0  0  0  0  0  0  0  0
   28.9240   10.1130   20.1580 C   0  0  0  0  0  0  0  0  0  0  0  0
   28.5660   11.6260   22.0250 N   0  0  0  0  0  0  0  0  0  0  0  0
   28.6030   12.9510   22.2860 C   0  0  0  0  0  0  0  0  0  0  0  0
   29.5450   13.6400   21.8950 O   0  0  0  0  0  0  0  0  0  0  0  0
   27.4630   13.5140   23.0940 C   0  0  0  0  0  0  0  0  0  0  0  0
   27.6710   14.6310   23.9740 C   0  0  0  0  0  0  0  0  0  0  0  0
   26.5940   15.1720   24.7750 C   0  0  0  0  0  0  0  0  0  0  0  0
   25.3150   14.5590   24.6590 C   0  0  0  0  0  0  0  0  0  0  0  0
   25.0900   13.4480   23.7880 C   0  0  0  0  0  0  0  0  0  0  0  0
   26.1710   12.9560   23.0290 C   0  0  0  0  0  0  0  0  0  0  0  0
   26.8280   16.3360   25.6500 N   0  0  0  0  0  0  0  0  0  0  0  0
   25.7180   16.7520   26.5710 C   0  0  0  0  0  0  0  0  0  0  0  0
   28.3510   16.3480   26.5440 S   0  0  0  0  0  0  0  0  0  0  0  0
   28.1470   16.9970   27.9460 O   0  0  0  0  0  0  0  0  0  0  0  0
   28.9570   14.9030   26.7450 O   0  0  0  0  0  0  0  0  0  0  0  0
   29.5130   17.4210   25.6790 C   0  0  0  0  0  0  0  0  0  0  0  0
   23.7300   12.8480   23.7050 C   0  0  0  0  0  0  0  0  0  0  0  0
   22.7210   13.5870   23.6420 O   0  0  0  0  0  0  0  0  0  0  0  0
   23.6470   11.4760   23.6830 N   0  0  0  0  0  0  0  0  0  0  0  0
   22.4520   10.6810   23.2230 C   0  0  3  0  0  0  0  0  0  0  0  0
   22.8370    9.9050   21.9070 C   0  0  0  0  0  0  0  0  0  0  0  0
   23.6830   10.5690   20.8050 C   0  0  0  0  0  0  0  0  0  0  0  0
   23.4220   11.9000   20.3780 C   0  0  0  0  0  0  0  0  0  0  0  0
   24.2120   12.4860   19.3440 C   0  0  0  0  0  0  0  0  0  0  0  0
   25.2510   11.7440   18.7420 C   0  0  0  0  0  0  0  0  0  0  0  0
   25.5230   10.4070   19.1660 C   0  0  0  0  0  0  0  0  0  0  0  0
   24.7380    9.8250   20.1960 C   0  0  0  0  0  0  0  0  0  0  0  0
   21.9850    9.5760   24.2220 C   0  0  3  0  0  0  0  0  0  0  0  0
   20.6830    9.0960   23.9580 O   0  0  0  0  0  0  0  0  0  0  0  0
   22.0270    9.9170   25.7090 C   0  0  0  0  0  0  0  0  0  0  0  0
   21.2810   11.0750   26.2060 N   0  3  0  0  0  0  0  0  0  0  0  0
   20.0660   10.8380   27.0590 C   0  0  0  0  0  0  0  0  0  0  0  0
   18.8250   11.3780   26.3480 C   0  0  0  0  0  0  0  0  0  0  0  0
   18.0650   10.5080   25.5410 C   0  0  0  0  0  0  0  0  0  0  0  0
   16.9460   10.9650   24.8300 C   0  0  0  0  0  0  0  0  0  0  0  0
   16.5780   12.3360   24.9320 C   0  0  0  0  0  0  0  0  0  0  0  0
   17.3220   13.2260   25.7390 C   0  0  0  0  0  0  0  0  0  0  0  0
   18.4570   12.7460   26.4510 C   0  0  0  0  0  0  0  0  0  0  0  0
   16.1600   10.1800   24.0050 O   0  0  0  0  0  0  0  0  0  0  0  0
   15.4470    9.0190   24.4620 C   0  0  0  0  0  0  0  0  0  0  0  0
   32.2740   11.1330   21.8130 H   0  0  0  0  0  0  0  0  0  0  0  0
   33.6850    9.7870   23.3660 H   0  0  0  0  0  0  0  0  0  0  0  0
   32.6790    7.9330   24.6900 H   0  0  0  0  0  0  0  0  0  0  0  0
   30.2460    7.4120   24.4740 H   0  0  0  0  0  0  0  0  0  0  0  0
   28.8230    8.7570   22.9190 H   0  0  0  0  0  0  0  0  0  0  0  0
   30.3340   11.5800   20.8160 H   0  0  0  0  0  0  0  0  0  0  0  0
   28.1980    9.4260   20.5920 H   0  0  0  0  0  0  0  0  0  0  0  0
   29.6690    9.5480   19.5980 H   0  0  0  0  0  0  0  0  0  0  0  0
   28.4140   10.8050   19.4880 H   0  0  0  0  0  0  0  0  0  0  0  0
   27.7720   11.0980   22.3590 H   0  0  0  0  0  0  0  0  0  0  0  0
   28.6530   15.0760   24.0390 H   0  0  0  0  0  0  0  0  0  0  0  0
   24.4930   14.9430   25.2440 H   0  0  0  0  0  0  0  0  0  0  0  0
   26.0020   12.1170   22.3710 H   0  0  0  0  0  0  0  0  0  0  0  0
   24.7740   16.7470   26.0270 H   0  0  0  0  0  0  0  0  0  0  0  0
   25.9150   17.7560   26.9480 H   0  0  0  0  0  0  0  0  0  0  0  0
   25.6590   16.0550   27.4070 H   0  0  0  0  0  0  0  0  0  0  0  0
   29.0710   18.4090   25.5540 H   0  0  0  0  0  0  0  0  0  0  0  0
   29.7390   16.9980   24.7000 H   0  0  0  0  0  0  0  0  0  0  0  0
   30.4320   17.5050   26.2600 H   0  0  0  0  0  0  0  0  0  0  0  0
   24.4530   10.9580   24.0010 H   0  0  0  0  0  0  0  0  0  0  0  0
   21.6510   11.4110   23.1040 H   0  0  0  0  0  0  0  0  0  0  0  0
   21.8990    9.6080   21.4390 H   0  0  0  0  0  0  0  0  0  0  0  0
   23.3840    9.0160   22.2220 H   0  0  0  0  0  0  0  0  0  0  0  0
   22.6260   12.4680   20.8360 H   0  0  0  0  0  0  0  0  0  0  0  0
   24.0150   13.4980   19.0220 H   0  0  0  0  0  0  0  0  0  0  0  0
   25.8440   12.1890   17.9570 H   0  0  0  0  0  0  0  0  0  0  0  0
   26.3210    9.8430   18.7060 H   0  0  0  0  0  0  0  0  0  0  0  0
   24.9400    8.8150   20.5200 H   0  0  0  0  0  0  0  0  0  0  0  0
   22.7460    8.8190   24.0330 H   0  0  0  0  0  0  0  0  0  0  0  0
   20.0680    9.8090   24.1440 H   0  0  0  0  0  0  0  0  0  0  0  0
   23.0730   10.0800   25.9670 H   0  0  0  0  0  0  0  0  0  0  0  0
   21.6520    9.0450   26.2450 H   0  0  0  0  0  0  0  0  0  0  0  0
   20.9800   11.6030   25.4000 H   0  0  0  0  0  0  0  0  0  0  0  0
   21.9240   11.6310   26.7520 H   0  0  0  0  0  0  0  0  0  0  0  0
   20.1880   11.3490   28.0140 H   0  0  0  0  0  0  0  0  0  0  0  0
   19.9480    9.7680   27.2320 H   0  0  0  0  0  0  0  0  0  0  0  0
   18.3500    9.4690   25.4690 H   0  0  0  0  0  0  0  0  0  0  0  0
   15.7200   12.7000   24.3860 H   0  0  0  0  0  0  0  0  0  0  0  0
   17.0310   14.2630   25.8150 H   0  0  0  0  0  0  0  0  0  0  0  0
   19.0360   13.4190   27.0670 H   0  0  0  0  0  0  0  0  0  0  0  0
   14.9040    8.5750   23.6280 H   0  0  0  0  0  0  0  0  0  0  0  0
   14.7420    9.3090   25.2410 H   0  0  0  0  0  0  0  0  0  0  0  0
   16.1540    8.2930   24.8630 H   0  0  0  0  0  0  0  0  0  0  0  0
  1  2  1  0  0  0  0
  1  6  2  0  0  0  0
  1 48  1  0  0  0  0
  2  3  2  0  0  0  0
  2 49  1  0  0  0  0
  3  4  1  0  0  0  0
  3 50  1  0  0  0  0
  4  5  2  0  0  0  0
  4 51  1  0  0  0  0
  5  6  1  0  0  0  0
  5 52  1  0  0  0  0
  6  7  1  0  0  0  0
  7  8  1  0  0  0  0
  7  9  1  0  0  0  0
  7 53  1  0  0  0  0
  8 54  1  0  0  0  0
  8 55  1  0  0  0  0
  8 56  1  0  0  0  0
  9 10  1  0  0  0  0
  9 57  1  0  0  0  0
 10 11  2  0  0  0  0
 10 12  1  0  0  0  0
 12 13  1  0  0  0  0
 12 17  2  0  0  0  0
 13 14  2  0  0  0  0
 13 58  1  0  0  0  0
 14 15  1  0  0  0  0
 14 18  1  0  0  0  0
 15 16  2  0  0  0  0
 15 59  1  0  0  0  0
 16 17  1  0  0  0  0
 16 24  1  0  0  0  0
 17 60  1  0  0  0  0
 18 19  1  0  0  0  0
 18 20  1  0  0  0  0
 19 61  1  0  0  0  0
 19 62  1  0  0  0  0
 19 63  1  0  0  0  0
 20 21  2  0  0  0  0
 20 22  2  0  0  0  0
 20 23  1  0  0  0  0
 23 64  1  0  0  0  0
 23 65  1  0  0  0  0
 23 66  1  0  0  0  0
 24 25  2  0  0  0  0
 24 26  1  0  0  0  0
 26 27  1  0  0  0  0
 26 67  1  0  0  0  0
 27 28  1  0  0  0  0
 27 35  1  0  0  0  0
 27 68  1  0  0  0  0
 28 29  1  0  0  0  0
 28 69  1  0  0  0  0
 28 70  1  0  0  0  0
 29 30  1  0  0  0  0
 29 34  2  0  0  0  0
 30 31  2  0  0  0  0
 30 71  1  0  0  0  0
 31 32  1  0  0  0  0
 31 72  1  0  0  0  0
 32 33  2  0  0  0  0
 32 73  1  0  0  0  0
 33 34  1  0  0  0  0
 33 74  1  0  0  0  0
 34 75  1  0  0  0  0
 35 36  1  0  0  0  0
 35 37  1  0  0  0  0
 35 76  1  0  0  0  0
 36 77  1  0  0  0  0
 37 38  1  0  0  0  0
 37 78  1  0  0  0  0
 37 79  1  0  0  0  0
 38 39  1  0  0  0  0
 38 80  1  0  0  0  0
 38 81  1  0  0  0  0
 39 40  1  0  0  0  0
 39 82  1  0  0  0  0
 39 83  1  0  0  0  0
 40 41  1  0  0  0  0
 40 45  2  0  0  0  0
 41 42  2  0  0  0  0
 41 84  1  0  0  0  0
 42 43  1  0  0  0  0
 42 46  1  0  0  0  0
 43 44  2  0  0  0  0
 43 85  1  0  0  0  0
 44 45  1  0  0  0  0
 44 86  1  0  0  0  0
 45 87  1  0  0  0  0
 46 47  1  0  0  0  0
 47 88  1  0  0  0  0
 47 89  1  0  0  0  0
 47 90  1  0  0  0  0
M  CHG  1  38   1
M  END
>  <PARENT_CMPD_ID>
2VKM

>  <STANDARD_TYPE>
Ki

>  <RELATION>
=

>  <STANDARD_VALUE>
0.0018

>  <STANDARD_UNITS>
uM

>  <COMPOUND_KEY>
24

>  <PUBMED_ID>
18180160

>  <JOURNAL>
Bioorg.Med.Chem.Lett.

>  <YEAR>
2008

>  <VOLUME>
18

>  <FIRST_PAGE>
1031

>  <Company>
Purdue

>  <Resolution>
2.05

>  <idx>
241

>  <Model>
Test

>  <target>
8.7447271

>  <des_pred_mlr>
7.5851998

>  <RF_Canvas>
7.4236193

>  <DNN_Canvas>
7.434536

>  <pred_CoMFA>
8.8144999

>  <pred_COMSIA>
8.3760004

>  <pred_abm5>
8.0797243

>  <pred_ff8>
8.4460735

>  <pred_gau6>
8.2911406

>  <CID>
BACE_241

>  <RF_canvas>
1

>  <DNN_canvas>
1

$$$$
4H1E_9331
  MOE2015           3D

 54 58  0  0  1  0  0  0  0  0999 V2000
   21.2630   10.4850   21.7860 C   0  0  3  0  0  0  0  0  0  0  0  0
   20.6610   11.7590   22.4330 C   0  0  3  0  0  0  0  0  0  0  0  0
   22.3880   11.4100   24.2600 N   0  0  0  0  0  0  0  0  0  0  0  0
   22.3360   10.0230   24.0190 C   0  0  0  0  0  0  0  0  0  0  0  0
   21.5760   12.3330   23.5270 C   0  0  0  0  0  0  0  0  0  0  0  0
   21.6450    9.6020   22.8760 N   0  0  0  0  0  0  0  0  0  0  0  0
   18.8750   10.4190   21.8650 N   0  0  0  0  0  0  0  0  0  0  0  0
   22.4050   10.7770   20.8460 C   0  0  0  0  0  0  0  0  0  0  0  0
   20.0100    9.8760   21.1030 C   0  0  0  0  0  0  0  0  0  0  0  0
   17.5960    9.9180   21.6820 C   0  0  0  0  0  0  0  0  0  0  0  0
   19.3220   11.2880   22.9480 C   0  0  0  0  0  0  0  0  0  0  0  0
   23.7530   10.5360   21.0310 C   0  0  0  0  0  0  0  0  0  0  0  0
   24.5870   10.9470   19.9610 C   0  0  0  0  0  0  0  0  0  0  0  0
   22.1790   11.4790   19.2970 S   0  0  0  0  0  0  0  0  0  0  0  0
   23.8350   11.4760   18.9230 C   0  0  0  0  0  0  0  0  0  0  0  0
   28.1240   10.3170   21.0840 C   0  0  0  0  0  0  0  0  0  0  0  0
   16.5900   10.1940   22.7160 C   0  0  0  0  0  0  0  0  0  0  0  0
   26.0280   10.8080   19.9180 C   0  0  0  0  0  0  0  0  0  0  0  0
   29.3370    9.6950   23.2480 N   0  0  0  0  0  0  0  0  0  0  0  0
   28.7950    9.9740   22.2790 C   0  0  0  0  0  0  0  0  0  0  0  0
   22.7820    9.1230   24.8430 N   0  0  0  0  0  0  0  0  0  0  0  0
   26.7190   10.4530   21.1100 C   0  0  0  0  0  0  0  0  0  0  0  0
   21.5360   13.5590   23.6750 O   0  0  0  0  0  0  0  0  0  0  0  0
   28.8520   10.4950   19.8860 C   0  0  0  0  0  0  0  0  0  0  0  0
   17.2650    9.3130   20.6530 O   0  0  0  0  0  0  0  0  0  0  0  0
   16.6910    9.7050   24.0600 C   0  0  0  0  0  0  0  0  0  0  0  0
   26.7760   10.9760   18.7030 C   0  0  0  0  0  0  0  0  0  0  0  0
   28.1730   10.8090   18.6810 C   0  0  0  0  0  0  0  0  0  0  0  0
   23.2920   11.9480   25.3300 C   0  0  0  0  0  0  0  0  0  0  0  0
   15.6680   10.0310   24.9830 C   0  0  0  0  0  0  0  0  0  0  0  0
   15.4750   11.0160   22.2770 C   0  0  0  0  0  0  0  0  0  0  0  0
   14.4630   11.3100   23.1950 C   0  0  0  0  0  0  0  0  0  0  0  0
   14.5500   10.8080   24.5500 C   0  0  0  0  0  0  0  0  0  0  0  0
   20.5550   12.5910   21.7370 H   0  0  0  0  0  0  0  0  0  0  0  0
   20.0290    8.7880   21.1630 H   0  0  0  0  0  0  0  0  0  0  0  0
   19.9540   10.1810   20.0580 H   0  0  0  0  0  0  0  0  0  0  0  0
   18.6370   12.1230   23.0950 H   0  0  0  0  0  0  0  0  0  0  0  0
   19.4280   10.7360   23.8820 H   0  0  0  0  0  0  0  0  0  0  0  0
   24.1420   10.0690   21.9240 H   0  0  0  0  0  0  0  0  0  0  0  0
   24.2500   11.8400   17.9950 H   0  0  0  0  0  0  0  0  0  0  0  0
   22.6280    8.1430   24.6530 H   0  0  0  0  0  0  0  0  0  0  0  0
   23.2830    9.4030   25.6740 H   0  0  0  0  0  0  0  0  0  0  0  0
   26.1730   10.2890   22.0270 H   0  0  0  0  0  0  0  0  0  0  0  0
   29.9270   10.3920   19.8880 H   0  0  0  0  0  0  0  0  0  0  0  0
   17.5320    9.0990   24.3630 H   0  0  0  0  0  0  0  0  0  0  0  0
   26.2580   11.2350   17.7920 H   0  0  0  0  0  0  0  0  0  0  0  0
   28.7220   10.9190   17.7570 H   0  0  0  0  0  0  0  0  0  0  0  0
   23.8390   11.1260   25.7910 H   0  0  0  0  0  0  0  0  0  0  0  0
   22.6960   12.4580   26.0870 H   0  0  0  0  0  0  0  0  0  0  0  0
   23.9980   12.6520   24.8890 H   0  0  0  0  0  0  0  0  0  0  0  0
   15.7320    9.6950   26.0070 H   0  0  0  0  0  0  0  0  0  0  0  0
   15.4290   11.3910   21.2650 H   0  0  0  0  0  0  0  0  0  0  0  0
   13.6170   11.9110   22.8940 H   0  0  0  0  0  0  0  0  0  0  0  0
   13.7540   11.0250   25.2470 H   0  0  0  0  0  0  0  0  0  0  0  0
  1  2  1  0  0  0  0
  1  6  1  0  0  0  0
  1  8  1  0  0  0  0
  1  9  1  0  0  0  0
  2  5  1  0  0  0  0
  2 11  1  0  0  0  0
  2 34  1  0  0  0  0
  3  4  1  0  0  0  0
  3  5  1  0  0  0  0
  3 29  1  0  0  0  0
  4  6  2  0  0  0  0
  4 21  1  0  0  0  0
  5 23  2  0  0  0  0
  7  9  1  0  0  0  0
  7 10  1  0  0  0  0
  7 11  1  0  0  0  0
  8 12  2  0  0  0  0
  8 14  1  0  0  0  0
  9 35  1  0  0  0  0
  9 36  1  0  0  0  0
 10 17  1  0  0  0  0
 10 25  2  0  0  0  0
 11 37  1  0  0  0  0
 11 38  1  0  0  0  0
 12 13  1  0  0  0  0
 12 39  1  0  0  0  0
 13 15  2  0  0  0  0
 13 18  1  0  0  0  0
 14 15  1  0  0  0  0
 15 40  1  0  0  0  0
 16 20  1  0  0  0  0
 16 22  2  0  0  0  0
 16 24  1  0  0  0  0
 17 26  2  0  0  0  0
 17 31  1  0  0  0  0
 18 22  1  0  0  0  0
 18 27  2  0  0  0  0
 19 20  3  0  0  0  0
 21 41  1  0  0  0  0
 21 42  1  0  0  0  0
 22 43  1  0  0  0  0
 24 28  2  0  0  0  0
 24 44  1  0  0  0  0
 26 30  1  0  0  0  0
 26 45  1  0  0  0  0
 27 28  1  0  0  0  0
 27 46  1  0  0  0  0
 28 47  1  0  0  0  0
 29 48  1  0  0  0  0
 29 49  1  0  0  0  0
 29 50  1  0  0  0  0
 30 33  2  0  0  0  0
 30 51  1  0  0  0  0
 31 32  2  0  0  0  0
 31 52  1  0  0  0  0
 32 33  1  0  0  0  0
 32 53  1  0  0  0  0
 33 54  1  0  0  0  0
M  END
>  <PARENT_CMPD_ID>
4H1E

>  <STANDARD_TYPE>
Ki

>  <RELATION>
=

>  <STANDARD_VALUE>
0.003

>  <STANDARD_UNITS>
uM

>  <COMPOUND_KEY>
26

>  <PUBMED_ID>
22989333

>  <JOURNAL>
J.Med.Chem.

>  <YEAR>
2012

>  <VOLUME>
55

>  <FIRST_PAGE>
9331

>  <Company>
Merck

>  <Resolution>
1.9

>  <idx>
242

>  <Model>
Test

>  <target>
8.5228786

>  <des_pred_mlr>
6.3785901

>  <RF_Canvas>
7.0570006

>  <DNN_Canvas>
7.4932203

>  <pred_CoMFA>
7.4731002

>  <pred_COMSIA>
6.5068998

>  <pred_abm5>
7.0877657

>  <pred_ff8>
6.3699222

>  <pred_gau6>
7.4733753

>  <CID>
BACE_242

>  <RF_canvas>
1

>  <DNN_canvas>
1

$$$$
4H3I_9331
  MOE2015           3D

 55 59  0  0  1  0  0  0  0  0999 V2000
   28.2890   10.9490   18.5980 C   0  0  0  0  0  0  0  0  0  0  0  0
   28.8410   11.1410   17.6900 H   0  0  0  0  0  0  0  0  0  0  0  0
   28.9810   10.5790   19.7820 C   0  0  0  0  0  0  0  0  0  0  0  0
   30.0570   10.4850   19.7860 H   0  0  0  0  0  0  0  0  0  0  0  0
   28.2260   10.3350   20.9600 C   0  0  0  0  0  0  0  0  0  0  0  0
   26.8220   10.4570   20.9530 C   0  0  0  0  0  0  0  0  0  0  0  0
   26.2740   10.2660   21.8640 H   0  0  0  0  0  0  0  0  0  0  0  0
   26.1080   10.8230   19.7840 C   0  0  0  0  0  0  0  0  0  0  0  0
   26.8690   11.0680   18.6030 C   0  0  0  0  0  0  0  0  0  0  0  0
   26.3590   11.3490   17.6940 H   0  0  0  0  0  0  0  0  0  0  0  0
   24.6040   10.9450   19.8160 C   0  0  0  0  0  0  0  0  0  0  0  0
   23.7960   10.4950   20.8970 C   0  0  0  0  0  0  0  0  0  0  0  0
   24.2050   10.0290   21.7810 H   0  0  0  0  0  0  0  0  0  0  0  0
   22.3740   10.7170   20.7080 C   0  0  0  0  0  0  0  0  0  0  0  0
   22.1420   11.4690   19.1990 S   0  0  0  0  0  0  0  0  0  0  0  0
   23.8090   11.5080   18.7980 C   0  0  0  0  0  0  0  0  0  0  0  0
   24.2010   11.9140   17.8780 H   0  0  0  0  0  0  0  0  0  0  0  0
   21.2580   10.3590   21.6620 C   0  0  3  0  0  0  0  0  0  0  0  0
   20.6480   11.6490   22.2430 C   0  0  3  0  0  0  0  0  0  0  0  0
   20.7010   12.4560   21.5120 H   0  0  0  0  0  0  0  0  0  0  0  0
   21.4270   12.2450   23.4570 C   0  0  0  0  0  0  0  0  0  0  0  0
   22.2010   11.3510   24.2070 N   0  0  0  0  0  0  0  0  0  0  0  0
   22.2370    9.9850   23.9560 C   0  0  0  0  0  0  0  0  0  0  0  0
   21.7500    9.4990   22.7680 N   0  0  0  0  0  0  0  0  0  0  0  0
   22.7310    9.1360   24.8570 N   0  0  0  0  0  0  0  0  0  0  0  0
   22.7450    8.1450   24.6630 H   0  0  0  0  0  0  0  0  0  0  0  0
   23.0920    9.4840   25.7340 H   0  0  0  0  0  0  0  0  0  0  0  0
   20.0700    9.6310   20.9990 C   0  0  0  0  0  0  0  0  0  0  0  0
   20.1400    8.5550   21.1550 H   0  0  0  0  0  0  0  0  0  0  0  0
   20.0360    9.8410   19.9300 H   0  0  0  0  0  0  0  0  0  0  0  0
   23.0010   11.9470   25.3200 C   0  0  0  0  0  0  0  0  0  0  0  0
   22.8360   13.0240   25.3500 H   0  0  0  0  0  0  0  0  0  0  0  0
   24.0590   11.7460   25.1550 H   0  0  0  0  0  0  0  0  0  0  0  0
   22.6910   11.5060   26.2670 H   0  0  0  0  0  0  0  0  0  0  0  0
   21.3410   13.4450   23.7120 O   0  0  0  0  0  0  0  0  0  0  0  0
   28.8750    9.9590   22.1850 C   0  0  0  0  0  0  0  0  0  0  0  0
   29.3690    9.6530   23.1890 N   0  0  0  0  0  0  0  0  0  0  0  0
   19.2170   11.2780   22.5970 C   0  0  0  0  0  0  0  0  0  0  0  0
   18.5480   12.1250   22.4410 H   0  0  0  0  0  0  0  0  0  0  0  0
   19.1480   10.9470   23.6330 H   0  0  0  0  0  0  0  0  0  0  0  0
   18.8910   10.1780   21.6740 N   0  0  0  0  0  0  0  0  0  0  0  0
   15.2810    9.1450   22.0190 C   0  0  0  0  0  0  0  0  0  0  0  0
   14.4760    9.0900   22.7360 H   0  0  0  0  0  0  0  0  0  0  0  0
   16.5530    9.6500   22.4250 C   0  0  0  0  0  0  0  0  0  0  0  0
   17.5920    9.7050   21.4220 C   0  0  0  0  0  0  0  0  0  0  0  0
   16.1270    8.8020   19.7910 C   0  0  0  0  0  0  0  0  0  0  0  0
   15.9710    8.4740   18.7740 H   0  0  0  0  0  0  0  0  0  0  0  0
   15.0630    8.7180   20.6970 C   0  0  0  0  0  0  0  0  0  0  0  0
   14.1010    8.3360   20.3890 H   0  0  0  0  0  0  0  0  0  0  0  0
   15.9800    9.6910   24.8210 C   0  0  0  0  0  0  0  0  0  0  0  0
   16.3490   10.1330   25.7460 H   0  0  0  0  0  0  0  0  0  0  0  0
   15.9900    8.6050   24.9080 H   0  0  0  0  0  0  0  0  0  0  0  0
   14.9610   10.0310   24.6370 H   0  0  0  0  0  0  0  0  0  0  0  0
   16.8120   10.0870   23.7430 O   0  0  0  0  0  0  0  0  0  0  0  0
   17.3480    9.2810   20.1430 N   0  0  0  0  0  0  0  0  0  0  0  0
  1  2  1  0  0  0  0
  1  3  1  0  0  0  0
  1  9  2  0  0  0  0
  3  4  1  0  0  0  0
  3  5  2  0  0  0  0
  5  6  1  0  0  0  0
  5 36  1  0  0  0  0
  6  7  1  0  0  0  0
  6  8  2  0  0  0  0
  8  9  1  0  0  0  0
  8 11  1  0  0  0  0
  9 10  1  0  0  0  0
 11 12  1  0  0  0  0
 11 16  2  0  0  0  0
 12 13  1  0  0  0  0
 12 14  2  0  0  0  0
 14 15  1  0  0  0  0
 14 18  1  0  0  0  0
 15 16  1  0  0  0  0
 16 17  1  0  0  0  0
 18 19  1  0  0  0  0
 18 24  1  0  0  0  0
 18 28  1  0  0  0  0
 19 20  1  0  0  0  0
 19 21  1  0  0  0  0
 19 38  1  0  0  0  0
 21 22  1  0  0  0  0
 21 35  2  0  0  0  0
 22 23  1  0  0  0  0
 22 31  1  0  0  0  0
 23 24  2  0  0  0  0
 23 25  1  0  0  0  0
 25 26  1  0  0  0  0
 25 27  1  0  0  0  0
 28 29  1  0  0  0  0
 28 30  1  0  0  0  0
 28 41  1  0  0  0  0
 31 32  1  0  0  0  0
 31 33  1  0  0  0  0
 31 34  1  0  0  0  0
 36 37  3  0  0  0  0
 38 39  1  0  0  0  0
 38 40  1  0  0  0  0
 38 41  1  0  0  0  0
 41 45  1  0  0  0  0
 42 43  1  0  0  0  0
 42 44  2  0  0  0  0
 42 48  1  0  0  0  0
 44 45  1  0  0  0  0
 44 54  1  0  0  0  0
 45 55  2  0  0  0  0
 46 47  1  0  0  0  0
 46 48  2  0  0  0  0
 46 55  1  0  0  0  0
 48 49  1  0  0  0  0
 50 51  1  0  0  0  0
 50 52  1  0  0  0  0
 50 53  1  0  0  0  0
 50 54  1  0  0  0  0
M  END
>  <PARENT_CMPD_ID>
4H3I

>  <STANDARD_TYPE>
Ki

>  <RELATION>
=

>  <STANDARD_VALUE>
0.003

>  <STANDARD_UNITS>
uM

>  <COMPOUND_KEY>
37

>  <PUBMED_ID>
22989333

>  <JOURNAL>
J.Med.Chem.

>  <YEAR>
2012

>  <VOLUME>
55

>  <FIRST_PAGE>
9331

>  <Company>
Merck

>  <Resolution>
1.96

>  <idx>
243

>  <Model>
Test

>  <target>
8.5228786

>  <des_pred_mlr>
6.5581298

>  <RF_Canvas>
7.2716527

>  <DNN_Canvas>
7.755713

>  <pred_CoMFA>
7.3572001

>  <pred_COMSIA>
6.0188999

>  <pred_abm5>
7.0594897

>  <pred_ff8>
5.9917822

>  <pred_gau6>
6.7454853

>  <CID>
BACE_243

>  <RF_canvas>
1

>  <DNN_canvas>
1

$$$$
3I25_1711
  MOE2015           3D

118121  0  0  1  0  0  0  0  0999 V2000
   29.8890   13.4190   22.0010 O   0  0  0  0  0  0  0  0  0  0  0  0
   28.9760   12.7110   22.3010 C   0  0  0  0  0  0  0  0  0  0  0  0
   28.9490   11.4230   21.9880 N   0  0  0  0  0  0  0  0  0  0  0  0
   30.0030   10.7210   21.2760 C   0  0  3  0  0  0  0  0  0  0  0  0
   30.8320    9.9460   22.2810 C   0  0  0  0  0  0  0  0  0  0  0  0
   32.2060   10.2080   22.4150 C   0  0  0  0  0  0  0  0  0  0  0  0
   33.0250    9.5090   23.3310 C   0  0  0  0  0  0  0  0  0  0  0  0
   32.4440    8.5530   24.1600 C   0  0  0  0  0  0  0  0  0  0  0  0
   31.0660    8.3000   24.0670 C   0  0  0  0  0  0  0  0  0  0  0  0
   30.2730    8.9970   23.1520 C   0  0  0  0  0  0  0  0  0  0  0  0
   29.3290    9.8150   20.2420 C   0  0  0  0  0  0  0  0  0  0  0  0
   27.8550   13.2900   23.0930 C   0  0  0  0  0  0  0  0  0  0  0  0
   28.1190   14.3090   23.9970 C   0  0  0  0  0  0  0  0  0  0  0  0
   27.0920   14.8170   24.8000 C   0  0  0  0  0  0  0  0  0  0  0  0
   27.2910   15.8480   25.7490 N   0  0  0  0  0  0  0  0  0  0  0  0
   28.6140   16.0780   26.5910 S   0  0  0  0  0  0  0  0  0  0  0  0
   28.3110   16.6960   27.8070 O   0  0  0  0  0  0  0  0  0  0  0  0
   29.4980   17.2750   25.8220 C   0  0  0  0  0  0  0  0  0  0  0  0
   29.3400   14.8800   26.7240 O   0  0  0  0  0  0  0  0  0  0  0  0
   26.1840   16.8240   25.9310 C   0  0  0  0  0  0  0  0  0  0  0  0
   25.8000   14.3070   24.6070 C   0  0  0  0  0  0  0  0  0  0  0  0
   26.5790   12.7700   22.9150 C   0  0  0  0  0  0  0  0  0  0  0  0
   25.5560   13.2730   23.7040 C   0  0  0  0  0  0  0  0  0  0  0  0
   24.1910   12.7240   23.4750 C   0  0  0  0  0  0  0  0  0  0  0  0
   23.2600   13.5000   23.3420 O   0  0  0  0  0  0  0  0  0  0  0  0
   24.0490   11.4060   23.3880 N   0  0  0  0  0  0  0  0  0  0  0  0
   22.8010   10.7070   23.0880 C   0  0  3  0  0  0  0  0  0  0  0  0
   23.2680    9.5130   22.2330 C   0  0  0  0  0  0  0  0  0  0  0  0
   24.2440    9.7460   21.2290 O   0  0  0  0  0  0  0  0  0  0  0  0
   24.3440   10.8310   20.3800 C   0  0  0  0  0  0  0  0  0  0  0  0
   25.5790   11.0510   19.7830 C   0  0  0  0  0  0  0  0  0  0  0  0
   25.7430   12.1330   18.9300 C   0  0  0  0  0  0  0  0  0  0  0  0
   26.9340   12.3120   18.3780 F   0  0  0  0  0  0  0  0  0  0  0  0
   24.7020   13.0260   18.6490 C   0  0  0  0  0  0  0  0  0  0  0  0
   23.4790   12.7990   19.2340 C   0  0  0  0  0  0  0  0  0  0  0  0
   22.4690   13.6400   18.9870 F   0  0  0  0  0  0  0  0  0  0  0  0
   23.2800   11.7010   20.0860 C   0  0  0  0  0  0  0  0  0  0  0  0
   22.1410   10.1520   24.3540 C   0  0  3  0  0  0  0  0  0  0  0  0
   23.0140    9.2150   24.9920 O   0  0  0  0  0  0  0  0  0  0  0  0
   21.8770   11.2900   25.3060 C   0  0  0  0  0  0  0  0  0  0  0  0
   20.6120   11.0430   26.0860 C   0  0  3  0  0  0  0  0  0  0  0  0
   20.7950   11.8920   27.2120 O   0  0  0  0  0  0  0  0  0  0  0  0
   19.9910   11.5390   28.3300 C   0  0  0  0  0  0  0  0  0  0  0  0
   20.3690   12.5480   29.4100 C   0  0  0  0  0  0  0  0  0  0  0  0
   19.1800   13.1480   29.8650 O   0  0  0  0  0  0  0  0  0  0  0  0
   18.5330   13.9920   28.8820 C   0  0  0  0  0  0  0  0  0  0  0  0
   19.3930   11.4990   25.3240 C   0  0  0  0  0  0  0  0  0  0  0  0
   19.3580   12.6440   24.9440 O   0  0  0  0  0  0  0  0  0  0  0  0
   18.4090   10.6310   25.0990 N   0  0  0  0  0  0  0  0  0  0  0  0
   17.2160   11.1010   24.4290 C   0  0  3  0  0  0  0  0  0  0  0  0
   16.0610   10.0860   24.3040 C   0  0  0  0  0  0  0  0  0  0  0  0
   15.7200    9.7920   22.8490 C   0  0  0  0  0  0  0  0  0  0  0  0
   15.9850    8.8920   25.2500 C   0  0  0  0  0  0  0  0  0  0  0  0
   16.5190   12.0950   25.3120 C   0  0  0  0  0  0  0  0  0  0  0  0
   16.5210   11.9490   26.5360 O   0  0  0  0  0  0  0  0  0  0  0  0
   15.8810   13.0880   24.7020 N   0  0  0  0  0  0  0  0  0  0  0  0
   15.1070   14.1420   25.3550 C   0  0  0  0  0  0  0  0  0  0  0  0
   15.6620   15.4570   24.9140 C   0  0  0  0  0  0  0  0  0  0  0  0
   16.9020   15.8610   25.3820 C   0  0  0  0  0  0  0  0  0  0  0  0
   17.4120   17.0870   24.9770 C   0  0  0  0  0  0  0  0  0  0  0  0
   14.9150   16.2640   24.0410 C   0  0  0  0  0  0  0  0  0  0  0  0
   15.4220   17.4900   23.6170 C   0  0  0  0  0  0  0  0  0  0  0  0
   16.6730   17.8910   24.0930 C   0  0  0  0  0  0  0  0  0  0  0  0
   28.1360   10.8910   22.2650 H   0  0  0  0  0  0  0  0  0  0  0  0
   30.6790   11.3980   20.7540 H   0  0  0  0  0  0  0  0  0  0  0  0
   32.6530   10.9710   21.7950 H   0  0  0  0  0  0  0  0  0  0  0  0
   34.0840    9.7130   23.3870 H   0  0  0  0  0  0  0  0  0  0  0  0
   33.0500    8.0090   24.8700 H   0  0  0  0  0  0  0  0  0  0  0  0
   30.6140    7.5590   24.7100 H   0  0  0  0  0  0  0  0  0  0  0  0
   29.2110    8.8020   23.1140 H   0  0  0  0  0  0  0  0  0  0  0  0
   28.6480    9.1300   20.7480 H   0  0  0  0  0  0  0  0  0  0  0  0
   30.0890    9.2440   19.7090 H   0  0  0  0  0  0  0  0  0  0  0  0
   28.7700   10.4260   19.5330 H   0  0  0  0  0  0  0  0  0  0  0  0
   29.1180   14.7100   24.0810 H   0  0  0  0  0  0  0  0  0  0  0  0
   28.8940   18.1790   25.7440 H   0  0  0  0  0  0  0  0  0  0  0  0
   29.7770   16.9370   24.8240 H   0  0  0  0  0  0  0  0  0  0  0  0
   30.3990   17.4880   26.3980 H   0  0  0  0  0  0  0  0  0  0  0  0
   25.3440   16.5440   25.2950 H   0  0  0  0  0  0  0  0  0  0  0  0
   26.5300   17.8210   25.6580 H   0  0  0  0  0  0  0  0  0  0  0  0
   25.8660   16.8230   26.9740 H   0  0  0  0  0  0  0  0  0  0  0  0
   24.9770   14.7240   25.1690 H   0  0  0  0  0  0  0  0  0  0  0  0
   26.3900   11.9980   22.1840 H   0  0  0  0  0  0  0  0  0  0  0  0
   24.8710   10.8400   23.5420 H   0  0  0  0  0  0  0  0  0  0  0  0
   22.0750   11.3660   22.6110 H   0  0  0  0  0  0  0  0  0  0  0  0
   22.3860    9.1060   21.7380 H   0  0  0  0  0  0  0  0  0  0  0  0
   23.6780    8.7680   22.9150 H   0  0  0  0  0  0  0  0  0  0  0  0
   26.4050   10.3850   19.9810 H   0  0  0  0  0  0  0  0  0  0  0  0
   24.8550   13.8690   17.9920 H   0  0  0  0  0  0  0  0  0  0  0  0
   22.3060   11.5240   20.5170 H   0  0  0  0  0  0  0  0  0  0  0  0
   21.2100    9.6540   24.0840 H   0  0  0  0  0  0  0  0  0  0  0  0
   23.8230    9.6790   25.2180 H   0  0  0  0  0  0  0  0  0  0  0  0
   21.7740   12.2150   24.7390 H   0  0  0  0  0  0  0  0  0  0  0  0
   22.7140   11.3800   25.9990 H   0  0  0  0  0  0  0  0  0  0  0  0
   20.4530    9.9890   26.3150 H   0  0  0  0  0  0  0  0  0  0  0  0
   20.2120   10.5230   28.6580 H   0  0  0  0  0  0  0  0  0  0  0  0
   18.9320   11.6180   28.0830 H   0  0  0  0  0  0  0  0  0  0  0  0
   21.0330   13.3060   28.9950 H   0  0  0  0  0  0  0  0  0  0  0  0
   20.8690   12.0400   30.2350 H   0  0  0  0  0  0  0  0  0  0  0  0
   17.6250   14.4170   29.3090 H   0  0  0  0  0  0  0  0  0  0  0  0
   18.2780   13.3980   28.0040 H   0  0  0  0  0  0  0  0  0  0  0  0
   19.2090   14.7960   28.5920 H   0  0  0  0  0  0  0  0  0  0  0  0
   18.4930    9.6670   25.3890 H   0  0  0  0  0  0  0  0  0  0  0  0
   17.6030   11.4210   23.4620 H   0  0  0  0  0  0  0  0  0  0  0  0
   15.2330   10.6400   24.7470 H   0  0  0  0  0  0  0  0  0  0  0  0
   16.5380    9.2370   22.3890 H   0  0  0  0  0  0  0  0  0  0  0  0
   15.5710   10.7300   22.3140 H   0  0  0  0  0  0  0  0  0  0  0  0
   14.8070    9.1980   22.8030 H   0  0  0  0  0  0  0  0  0  0  0  0
   16.7570    8.1700   24.9860 H   0  0  0  0  0  0  0  0  0  0  0  0
   15.0050    8.4230   25.1650 H   0  0  0  0  0  0  0  0  0  0  0  0
   16.1380    9.2300   26.2750 H   0  0  0  0  0  0  0  0  0  0  0  0
   15.9360   13.1170   23.6940 H   0  0  0  0  0  0  0  0  0  0  0  0
   15.1920   14.0480   26.4380 H   0  0  0  0  0  0  0  0  0  0  0  0
   14.0590   14.0660   25.0650 H   0  0  0  0  0  0  0  0  0  0  0  0
   17.4650   15.2300   26.0540 H   0  0  0  0  0  0  0  0  0  0  0  0
   18.3730   17.4210   25.3400 H   0  0  0  0  0  0  0  0  0  0  0  0
   13.9460   15.9340   23.6980 H   0  0  0  0  0  0  0  0  0  0  0  0
   14.8620   18.1150   22.9370 H   0  0  0  0  0  0  0  0  0  0  0  0
   17.0810   18.8390   23.7750 H   0  0  0  0  0  0  0  0  0  0  0  0
  1  2  2  0  0  0  0
  2  3  1  0  0  0  0
  2 12  1  0  0  0  0
  3  4  1  0  0  0  0
  3 64  1  0  0  0  0
  4  5  1  0  0  0  0
  4 11  1  0  0  0  0
  4 65  1  0  0  0  0
  5  6  1  0  0  0  0
  5 10  2  0  0  0  0
  6  7  2  0  0  0  0
  6 66  1  0  0  0  0
  7  8  1  0  0  0  0
  7 67  1  0  0  0  0
  8  9  2  0  0  0  0
  8 68  1  0  0  0  0
  9 10  1  0  0  0  0
  9 69  1  0  0  0  0
 10 70  1  0  0  0  0
 11 71  1  0  0  0  0
 11 72  1  0  0  0  0
 11 73  1  0  0  0  0
 12 13  1  0  0  0  0
 12 22  2  0  0  0  0
 13 14  2  0  0  0  0
 13 74  1  0  0  0  0
 14 15  1  0  0  0  0
 14 21  1  0  0  0  0
 15 16  1  0  0  0  0
 15 20  1  0  0  0  0
 16 17  2  0  0  0  0
 16 18  1  0  0  0  0
 16 19  2  0  0  0  0
 18 75  1  0  0  0  0
 18 76  1  0  0  0  0
 18 77  1  0  0  0  0
 20 78  1  0  0  0  0
 20 79  1  0  0  0  0
 20 80  1  0  0  0  0
 21 23  2  0  0  0  0
 21 81  1  0  0  0  0
 22 23  1  0  0  0  0
 22 82  1  0  0  0  0
 23 24  1  0  0  0  0
 24 25  2  0  0  0  0
 24 26  1  0  0  0  0
 26 27  1  0  0  0  0
 26 83  1  0  0  0  0
 27 28  1  0  0  0  0
 27 38  1  0  0  0  0
 27 84  1  0  0  0  0
 28 29  1  0  0  0  0
 28 85  1  0  0  0  0
 28 86  1  0  0  0  0
 29 30  1  0  0  0  0
 30 31  1  0  0  0  0
 30 37  2  0  0  0  0
 31 32  2  0  0  0  0
 31 87  1  0  0  0  0
 32 33  1  0  0  0  0
 32 34  1  0  0  0  0
 34 35  2  0  0  0  0
 34 88  1  0  0  0  0
 35 36  1  0  0  0  0
 35 37  1  0  0  0  0
 37 89  1  0  0  0  0
 38 39  1  0  0  0  0
 38 40  1  0  0  0  0
 38 90  1  0  0  0  0
 39 91  1  0  0  0  0
 40 41  1  0  0  0  0
 40 92  1  0  0  0  0
 40 93  1  0  0  0  0
 41 42  1  0  0  0  0
 41 47  1  0  0  0  0
 41 94  1  0  0  0  0
 42 43  1  0  0  0  0
 43 44  1  0  0  0  0
 43 95  1  0  0  0  0
 43 96  1  0  0  0  0
 44 45  1  0  0  0  0
 44 97  1  0  0  0  0
 44 98  1  0  0  0  0
 45 46  1  0  0  0  0
 46 99  1  0  0  0  0
 46100  1  0  0  0  0
 46101  1  0  0  0  0
 47 48  2  0  0  0  0
 47 49  1  0  0  0  0
 49 50  1  0  0  0  0
 49102  1  0  0  0  0
 50 51  1  0  0  0  0
 50 54  1  0  0  0  0
 50103  1  0  0  0  0
 51 52  1  0  0  0  0
 51 53  1  0  0  0  0
 51104  1  0  0  0  0
 52105  1  0  0  0  0
 52106  1  0  0  0  0
 52107  1  0  0  0  0
 53108  1  0  0  0  0
 53109  1  0  0  0  0
 53110  1  0  0  0  0
 54 55  2  0  0  0  0
 54 56  1  0  0  0  0
 56 57  1  0  0  0  0
 56111  1  0  0  0  0
 57 58  1  0  0  0  0
 57112  1  0  0  0  0
 57113  1  0  0  0  0
 58 59  2  0  0  0  0
 58 61  1  0  0  0  0
 59 60  1  0  0  0  0
 59114  1  0  0  0  0
 60 63  2  0  0  0  0
 60115  1  0  0  0  0
 61 62  2  0  0  0  0
 61116  1  0  0  0  0
 62 63  1  0  0  0  0
 62117  1  0  0  0  0
 63118  1  0  0  0  0
M  END
>  <PARENT_CMPD_ID>
3I25

>  <STANDARD_TYPE>
Ki

>  <RELATION>
=

>  <STANDARD_VALUE>
0.0031000001

>  <STANDARD_UNITS>
uM

>  <COMPOUND_KEY>
2c

>  <PUBMED_ID>
20122837

>  <JOURNAL>
Bioorg.Med.Chem.

>  <YEAR>
2010

>  <VOLUME>
18

>  <FIRST_PAGE>
1711

>  <Company>
Arrhenius

>  <Resolution>
2.0999999

>  <idx>
244

>  <Model>
Test

>  <target>
8.5086384

>  <des_pred_mlr>
8.6661301

>  <RF_Canvas>
7.6447859

>  <DNN_Canvas>
7.3048124

>  <pred_CoMFA>
8.8305998

>  <pred_COMSIA>
10.674

>  <pred_abm5>
8.9404478

>  <pred_ff8>
8.2426844

>  <pred_gau6>
9.6315804

>  <CID>
BACE_244

>  <RF_canvas>
1

>  <DNN_canvas>
1

$$$$
4DJY_2444
  MOE2015           3D

 47 50  0  0  1  0  0  0  0  0999 V2000
   22.2740   10.6540   21.7190 C   0  0  3  0  0  0  0  0  0  0  0  0
   22.5650    9.4390   22.5790 N   0  0  0  0  0  0  0  0  0  0  0  0
   22.6200    8.4830   22.2570 H   0  0  0  0  0  0  0  0  0  0  0  0
   22.7360    9.8530   23.8360 C   0  0  0  0  0  0  0  0  0  0  0  0
   22.7690   11.2680   23.9500 N   0  0  0  0  0  0  0  0  0  0  0  0
   22.4830   11.8280   22.7270 C   0  0  0  0  0  0  0  0  0  0  0  0
   20.7810   10.7270   21.2790 C   0  0  0  0  0  0  0  0  0  0  0  0
   21.0030   11.6800   20.7990 H   0  0  0  0  0  0  0  0  0  0  0  0
   22.4330   13.0220   22.4930 O   0  0  0  0  0  0  0  0  0  0  0  0
   23.3000   10.7970   20.5930 C   0  0  0  0  0  0  0  0  0  0  0  0
   24.6650   10.7730   20.8890 C   0  0  0  0  0  0  0  0  0  0  0  0
   24.9890   10.6150   21.9070 H   0  0  0  0  0  0  0  0  0  0  0  0
   25.6160   10.9520   19.8790 C   0  0  0  0  0  0  0  0  0  0  0  0
   25.1720   11.1370   18.5640 C   0  0  0  0  0  0  0  0  0  0  0  0
   25.8940   11.2550   17.7700 H   0  0  0  0  0  0  0  0  0  0  0  0
   23.8210   11.1700   18.2690 C   0  0  0  0  0  0  0  0  0  0  0  0
   23.4950   11.3260   17.2510 H   0  0  0  0  0  0  0  0  0  0  0  0
   22.8880   11.0040   19.2760 C   0  0  0  0  0  0  0  0  0  0  0  0
   21.8340   11.0350   19.0420 H   0  0  0  0  0  0  0  0  0  0  0  0
   22.9470    9.0770   24.9040 N   0  3  0  0  0  0  0  0  0  0  0  0
   23.0640    9.4940   25.8160 H   0  0  0  0  0  0  0  0  0  0  0  0
   22.9890    8.0730   24.7980 H   0  0  0  0  0  0  0  0  0  0  0  0
   23.0260   12.0520   25.1640 C   0  0  0  0  0  0  0  0  0  0  0  0
   23.2270   11.3770   25.9960 H   0  0  0  0  0  0  0  0  0  0  0  0
   22.1530   12.6630   25.3940 H   0  0  0  0  0  0  0  0  0  0  0  0
   23.8890   12.6980   25.0040 H   0  0  0  0  0  0  0  0  0  0  0  0
   19.6630   10.2240   22.1510 C   0  0  0  0  0  0  0  0  0  0  0  0
   18.7220   10.7720   22.2010 H   0  0  0  0  0  0  0  0  0  0  0  0
   19.8850    9.7920   23.1270 H   0  0  0  0  0  0  0  0  0  0  0  0
   20.0350    9.4830   20.9000 C   0  0  0  0  0  0  0  0  0  0  0  0
   20.5260    8.5120   20.9680 H   0  0  0  0  0  0  0  0  0  0  0  0
   19.3630    9.4910   20.0420 H   0  0  0  0  0  0  0  0  0  0  0  0
   27.0700   11.0270   20.2250 C   0  0  0  0  0  0  0  0  0  0  0  0
   27.6040   10.2200   21.2350 C   0  0  0  0  0  0  0  0  0  0  0  0
   26.9750    9.5120   21.7540 H   0  0  0  0  0  0  0  0  0  0  0  0
   28.9540   10.3360   21.5680 C   0  0  0  0  0  0  0  0  0  0  0  0
   29.7240   11.2650   20.8650 C   0  0  0  0  0  0  0  0  0  0  0  0
   30.7690   11.3630   21.1210 H   0  0  0  0  0  0  0  0  0  0  0  0
   27.9340   11.9130   19.5890 C   0  0  0  0  0  0  0  0  0  0  0  0
   27.5330   12.5370   18.8040 H   0  0  0  0  0  0  0  0  0  0  0  0
   29.5270    9.5150   22.6020 C   0  0  0  0  0  0  0  0  0  0  0  0
   29.2330   12.0390   19.8910 N   0  0  0  0  0  0  0  0  0  0  0  0
   30.0650    8.8770   23.4490 C   0  0  0  0  0  0  0  0  0  0  0  0
   30.7590    8.1160   24.4910 C   0  0  0  0  0  0  0  0  0  0  0  0
   30.1390    7.2750   24.8010 H   0  0  0  0  0  0  0  0  0  0  0  0
   30.9490    8.7630   25.3480 H   0  0  0  0  0  0  0  0  0  0  0  0
   31.7060    7.7440   24.1000 H   0  0  0  0  0  0  0  0  0  0  0  0
  1  2  1  0  0  0  0
  1  6  1  0  0  0  0
  1  7  1  0  0  0  0
  1 10  1  0  0  0  0
  2  3  1  0  0  0  0
  2  4  1  0  0  0  0
  4  5  1  0  0  0  0
  4 20  2  0  0  0  0
  5  6  1  0  0  0  0
  5 23  1  0  0  0  0
  6  9  2  0  0  0  0
  7  8  1  0  0  0  0
  7 27  1  0  0  0  0
  7 30  1  0  0  0  0
 10 11  1  0  0  0  0
 10 18  2  0  0  0  0
 11 12  1  0  0  0  0
 11 13  2  0  0  0  0
 13 14  1  0  0  0  0
 13 33  1  0  0  0  0
 14 15  1  0  0  0  0
 14 16  2  0  0  0  0
 16 17  1  0  0  0  0
 16 18  1  0  0  0  0
 18 19  1  0  0  0  0
 20 21  1  0  0  0  0
 20 22  1  0  0  0  0
 23 24  1  0  0  0  0
 23 25  1  0  0  0  0
 23 26  1  0  0  0  0
 27 28  1  0  0  0  0
 27 29  1  0  0  0  0
 27 30  1  0  0  0  0
 30 31  1  0  0  0  0
 30 32  1  0  0  0  0
 33 34  1  0  0  0  0
 33 39  2  0  0  0  0
 34 35  1  0  0  0  0
 34 36  2  0  0  0  0
 36 37  1  0  0  0  0
 36 41  1  0  0  0  0
 37 38  1  0  0  0  0
 37 42  2  0  0  0  0
 39 40  1  0  0  0  0
 39 42  1  0  0  0  0
 41 43  3  0  0  0  0
 43 44  1  0  0  0  0
 44 45  1  0  0  0  0
 44 46  1  0  0  0  0
 44 47  1  0  0  0  0
M  CHG  1  20   1
M  END
>  <PARENT_CMPD_ID>
4DJY

>  <STANDARD_TYPE>
Ki

>  <RELATION>
=

>  <STANDARD_VALUE>
0.0054000001

>  <STANDARD_UNITS>
uM

>  <COMPOUND_KEY>
24

>  <PUBMED_ID>
22390835

>  <JOURNAL>
Bioorg.Med.Chem.Lett.

>  <YEAR>
2012

>  <VOLUME>
22

>  <FIRST_PAGE>
2444

>  <Company>
Merck

>  <Resolution>
1.86

>  <idx>
245

>  <Model>
Test

>  <target>
8.2676058

>  <des_pred_mlr>
6.4471798

>  <RF_Canvas>
5.9160433

>  <DNN_Canvas>
6.8857055

>  <pred_CoMFA>
6.2981

>  <pred_COMSIA>
6.2421999

>  <pred_abm5>
7.2577982

>  <pred_ff8>
6.3101687

>  <pred_gau6>
6.1768036

>  <CID>
BACE_245

>  <RF_canvas>
0

>  <DNN_canvas>
1

$$$$
4H3G_9331
  MOE2015           3D

 52 56  0  0  1  0  0  0  0  0999 V2000
   21.8870   10.6050   21.5360 C   0  0  3  0  0  0  0  0  0  0  0  0
   21.4300   12.0020   21.9920 C   0  0  3  0  0  0  0  0  0  0  0  0
   21.6610   12.7660   21.2490 H   0  0  0  0  0  0  0  0  0  0  0  0
   22.6390   11.5320   24.1460 N   0  0  0  0  0  0  0  0  0  0  0  0
   22.5170   10.1610   23.9230 C   0  0  0  0  0  0  0  0  0  0  0  0
   22.1910   12.5050   23.2470 C   0  0  0  0  0  0  0  0  0  0  0  0
   22.1120    9.7110   22.6920 N   0  0  0  0  0  0  0  0  0  0  0  0
   23.1120   10.7950   20.6560 C   0  0  0  0  0  0  0  0  0  0  0  0
   19.5610   10.6780   21.4320 N   0  0  0  0  0  0  0  0  0  0  0  0
   20.7160   10.0600   20.7840 C   0  0  0  0  0  0  0  0  0  0  0  0
   20.6730    8.9740   20.8680 H   0  0  0  0  0  0  0  0  0  0  0  0
   20.7660   10.3410   19.7320 H   0  0  0  0  0  0  0  0  0  0  0  0
   19.9130   11.8810   22.1940 C   0  0  0  0  0  0  0  0  0  0  0  0
   19.3960   12.7560   21.8000 H   0  0  0  0  0  0  0  0  0  0  0  0
   19.6690   11.7590   23.2490 H   0  0  0  0  0  0  0  0  0  0  0  0
   24.4890   10.7410   21.0850 C   0  0  0  0  0  0  0  0  0  0  0  0
   24.7800   10.5490   22.1070 H   0  0  0  0  0  0  0  0  0  0  0  0
   25.4220   10.9620   20.0470 C   0  0  0  0  0  0  0  0  0  0  0  0
   23.0750   11.1260   18.9760 S   0  0  0  0  0  0  0  0  0  0  0  0
   24.7790   11.1940   18.8070 C   0  0  0  0  0  0  0  0  0  0  0  0
   25.2940   11.3880   17.8780 H   0  0  0  0  0  0  0  0  0  0  0  0
   18.2520   10.1880   21.3860 C   0  0  0  0  0  0  0  0  0  0  0  0
   29.7630    9.3790   23.8930 N   0  0  0  0  0  0  0  0  0  0  0  0
   22.8110    9.2860   24.8880 N   0  0  0  0  0  0  0  0  0  0  0  0
   22.7350    8.2950   24.7110 H   0  0  0  0  0  0  0  0  0  0  0  0
   23.1090    9.6160   25.7950 H   0  0  0  0  0  0  0  0  0  0  0  0
   26.9110   10.9580   20.2830 C   0  0  0  0  0  0  0  0  0  0  0  0
   17.6470    9.4050   20.3290 C   0  0  0  0  0  0  0  0  0  0  0  0
   29.3440    9.8370   22.9210 C   0  0  0  0  0  0  0  0  0  0  0  0
   22.3810   13.7100   23.4020 O   0  0  0  0  0  0  0  0  0  0  0  0
   16.3070    8.9940   20.4700 C   0  0  0  0  0  0  0  0  0  0  0  0
   15.8380    8.4100   19.6920 H   0  0  0  0  0  0  0  0  0  0  0  0
   27.4530   10.4060   21.4690 C   0  0  0  0  0  0  0  0  0  0  0  0
   26.7890    9.9760   22.2050 H   0  0  0  0  0  0  0  0  0  0  0  0
   23.2910   12.0020   25.4060 C   0  0  0  0  0  0  0  0  0  0  0  0
   23.5870   11.1410   26.0050 H   0  0  0  0  0  0  0  0  0  0  0  0
   22.5890   12.6140   25.9720 H   0  0  0  0  0  0  0  0  0  0  0  0
   24.1730   12.5940   25.1600 H   0  0  0  0  0  0  0  0  0  0  0  0
   28.8450   10.4070   21.7080 C   0  0  0  0  0  0  0  0  0  0  0  0
   17.5050   10.5220   22.4880 N   0  0  0  0  0  0  0  0  0  0  0  0
   27.8170   11.5170   19.3410 C   0  0  0  0  0  0  0  0  0  0  0  0
   27.4320   11.9500   18.4300 H   0  0  0  0  0  0  0  0  0  0  0  0
   16.2180   10.1000   22.6100 C   0  0  0  0  0  0  0  0  0  0  0  0
   15.6700   10.3600   23.5040 H   0  0  0  0  0  0  0  0  0  0  0  0
   29.2150   11.5170   19.5740 C   0  0  0  0  0  0  0  0  0  0  0  0
   29.8810   11.9430   18.8390 H   0  0  0  0  0  0  0  0  0  0  0  0
   15.5760    9.3430   21.6240 C   0  0  0  0  0  0  0  0  0  0  0  0
   14.5480    9.0340   21.7440 H   0  0  0  0  0  0  0  0  0  0  0  0
   29.7440   10.9620   20.7650 C   0  0  0  0  0  0  0  0  0  0  0  0
   30.8080   10.9620   20.9500 H   0  0  0  0  0  0  0  0  0  0  0  0
   18.3230    9.0060   19.1090 C   0  0  0  0  0  0  0  0  0  0  0  0
   18.9150    8.7130   18.1510 N   0  0  0  0  0  0  0  0  0  0  0  0
  1  2  1  0  0  0  0
  1  7  1  0  0  0  0
  1  8  1  0  0  0  0
  1 10  1  0  0  0  0
  2  3  1  0  0  0  0
  2  6  1  0  0  0  0
  2 13  1  0  0  0  0
  4  5  1  0  0  0  0
  4  6  1  0  0  0  0
  4 35  1  0  0  0  0
  5  7  2  0  0  0  0
  5 24  1  0  0  0  0
  6 30  2  0  0  0  0
  8 16  2  0  0  0  0
  8 19  1  0  0  0  0
  9 10  1  0  0  0  0
  9 13  1  0  0  0  0
  9 22  1  0  0  0  0
 10 11  1  0  0  0  0
 10 12  1  0  0  0  0
 13 14  1  0  0  0  0
 13 15  1  0  0  0  0
 16 17  1  0  0  0  0
 16 18  1  0  0  0  0
 18 20  2  0  0  0  0
 18 27  1  0  0  0  0
 19 20  1  0  0  0  0
 20 21  1  0  0  0  0
 22 28  2  0  0  0  0
 22 40  1  0  0  0  0
 23 29  3  0  0  0  0
 24 25  1  0  0  0  0
 24 26  1  0  0  0  0
 27 33  2  0  0  0  0
 27 41  1  0  0  0  0
 28 31  1  0  0  0  0
 28 51  1  0  0  0  0
 29 39  1  0  0  0  0
 31 32  1  0  0  0  0
 31 47  2  0  0  0  0
 33 34  1  0  0  0  0
 33 39  1  0  0  0  0
 35 36  1  0  0  0  0
 35 37  1  0  0  0  0
 35 38  1  0  0  0  0
 39 49  2  0  0  0  0
 40 43  2  0  0  0  0
 41 42  1  0  0  0  0
 41 45  2  0  0  0  0
 43 44  1  0  0  0  0
 43 47  1  0  0  0  0
 45 46  1  0  0  0  0
 45 49  1  0  0  0  0
 47 48  1  0  0  0  0
 49 50  1  0  0  0  0
 51 52  3  0  0  0  0
M  END
>  <PARENT_CMPD_ID>
4H3G

>  <STANDARD_TYPE>
Ki

>  <RELATION>
=

>  <STANDARD_VALUE>
0.0060000001

>  <STANDARD_UNITS>
uM

>  <COMPOUND_KEY>
38

>  <PUBMED_ID>
22989333

>  <JOURNAL>
J.Med.Chem.

>  <YEAR>
2012

>  <VOLUME>
55

>  <FIRST_PAGE>
9331

>  <Company>
Merck

>  <Resolution>
1.85

>  <idx>
246

>  <Model>
Test

>  <target>
8.2218485

>  <des_pred_mlr>
6.57514

>  <RF_Canvas>
7.2513385

>  <DNN_Canvas>
7.833005

>  <pred_CoMFA>
7.4422998

>  <pred_COMSIA>
6.6852999

>  <pred_abm5>
7.0795569

>  <pred_ff8>
6.5187564

>  <pred_gau6>
6.9157929

>  <CID>
BACE_246

>  <RF_canvas>
1

>  <DNN_canvas>
1

$$$$
2Q11_4261
  MOE2015           3D

 62 65  0  0  0  0  0  0  0  0999 V2000
   23.6250   14.5000   22.8420 C   0  0  0  0  0  0  0  0  0  0  0  0
   24.1700   13.1360   22.6710 N   0  0  0  0  0  0  0  0  0  0  0  0
   24.2880   12.2820   23.7700 C   0  0  0  0  0  0  0  0  0  0  0  0
   24.7330   11.1670   23.6390 O   0  0  0  0  0  0  0  0  0  0  0  0
   23.8640   12.7180   25.1390 C   0  0  0  0  0  0  0  0  0  0  0  0
   22.5020   12.1000   25.5070 C   0  0  0  0  0  0  0  0  0  0  0  0
   21.8120   11.5230   24.3220 N   0  0  0  0  0  0  0  0  0  0  0  0
   20.9300   12.4090   23.4760 C   0  0  0  0  0  0  0  0  0  0  0  0
   20.4310   11.6910   22.2320 C   0  0  0  0  0  0  0  0  0  0  0  0
   19.8210   12.4060   21.2090 C   0  0  0  0  0  0  0  0  0  0  0  0
   19.3530   11.7150   20.0330 C   0  0  0  0  0  0  0  0  0  0  0  0
   18.6820   12.4700   18.9260 C   0  0  0  0  0  0  0  0  0  0  0  0
   17.5260   12.2020   18.6530 O   0  0  0  0  0  0  0  0  0  0  0  0
   19.3980   13.5580   18.1620 C   0  0  0  0  0  0  0  0  0  0  0  0
   20.7670   13.8790   18.4360 C   0  0  0  0  0  0  0  0  0  0  0  0
   21.4090   14.9060   17.7080 C   0  0  0  0  0  0  0  0  0  0  0  0
   20.7070   15.6190   16.7090 C   0  0  0  0  0  0  0  0  0  0  0  0
   19.3590   15.3130   16.4300 C   0  0  0  0  0  0  0  0  0  0  0  0
   18.7030   14.2870   17.1440 C   0  0  0  0  0  0  0  0  0  0  0  0
   19.5230   10.2900   19.9290 C   0  0  0  0  0  0  0  0  0  0  0  0
   19.1760    9.7700   19.0480 H   0  0  0  0  0  0  0  0  0  0  0  0
   20.1330    9.5780   20.9600 C   0  0  0  0  0  0  0  0  0  0  0  0
   20.2560    8.5080   20.8770 H   0  0  0  0  0  0  0  0  0  0  0  0
   20.5950   10.2570   22.1230 C   0  0  0  0  0  0  0  0  0  0  0  0
   21.1840    9.5590   23.1300 N   0  3  0  0  0  0  0  0  0  0  0  0
   21.9670   10.1470   24.0190 C   0  0  0  0  0  0  0  0  0  0  0  0
   22.7450    9.3620   24.7950 N   0  0  0  0  0  0  0  0  0  0  0  0
   22.6210    8.3630   24.7170 H   0  0  0  0  0  0  0  0  0  0  0  0
   23.4820    9.7140   25.3830 H   0  0  0  0  0  0  0  0  0  0  0  0
   24.5790   12.6970   21.2990 C   0  0  0  0  0  0  0  0  0  0  0  0
   25.9810   12.0140   21.3190 C   0  0  0  0  0  0  0  0  0  0  0  0
   26.3430   11.4650   19.9280 C   0  0  0  0  0  0  0  0  0  0  0  0
   25.2630   10.4660   19.4710 C   0  0  0  0  0  0  0  0  0  0  0  0
   23.9190   11.2030   19.3400 C   0  0  0  0  0  0  0  0  0  0  0  0
   23.4950   11.7390   20.7200 C   0  0  0  0  0  0  0  0  0  0  0  0
   23.3770   14.6630   23.8910 H   0  0  0  0  0  0  0  0  0  0  0  0
   22.7270   14.6110   22.2350 H   0  0  0  0  0  0  0  0  0  0  0  0
   24.3690   15.2310   22.5260 H   0  0  0  0  0  0  0  0  0  0  0  0
   23.7820   13.8050   25.1590 H   0  0  0  0  0  0  0  0  0  0  0  0
   24.6110   12.3970   25.8650 H   0  0  0  0  0  0  0  0  0  0  0  0
   21.8690   12.8750   25.9390 H   0  0  0  0  0  0  0  0  0  0  0  0
   22.6610   11.3100   26.2410 H   0  0  0  0  0  0  0  0  0  0  0  0
   21.5010   13.2860   23.1710 H   0  0  0  0  0  0  0  0  0  0  0  0
   20.0720   12.7220   24.0700 H   0  0  0  0  0  0  0  0  0  0  0  0
   19.6980   13.4760   21.2940 H   0  0  0  0  0  0  0  0  0  0  0  0
   21.3080   13.3370   19.1980 H   0  0  0  0  0  0  0  0  0  0  0  0
   22.4410   15.1470   17.9160 H   0  0  0  0  0  0  0  0  0  0  0  0
   21.2060   16.4020   16.1570 H   0  0  0  0  0  0  0  0  0  0  0  0
   18.8280   15.8650   15.6690 H   0  0  0  0  0  0  0  0  0  0  0  0
   17.6730   14.0510   16.9220 H   0  0  0  0  0  0  0  0  0  0  0  0
   24.6600   13.5730   20.6560 H   0  0  0  0  0  0  0  0  0  0  0  0
   25.9680   11.1920   22.0350 H   0  0  0  0  0  0  0  0  0  0  0  0
   26.7300   12.7460   21.6200 H   0  0  0  0  0  0  0  0  0  0  0  0
   27.3080   10.9600   19.9770 H   0  0  0  0  0  0  0  0  0  0  0  0
   26.4000   12.2890   19.2160 H   0  0  0  0  0  0  0  0  0  0  0  0
   25.1710    9.6660   20.2060 H   0  0  0  0  0  0  0  0  0  0  0  0
   25.5420   10.0420   18.5060 H   0  0  0  0  0  0  0  0  0  0  0  0
   23.1610   10.5140   18.9690 H   0  0  0  0  0  0  0  0  0  0  0  0
   24.0260   12.0350   18.6440 H   0  0  0  0  0  0  0  0  0  0  0  0
   22.5550   12.2820   20.6190 H   0  0  0  0  0  0  0  0  0  0  0  0
   23.3580   10.9000   21.4020 H   0  0  0  0  0  0  0  0  0  0  0  0
   21.0190    8.5650   23.2010 H   0  0  0  0  0  0  0  0  0  0  0  0
  1  2  1  0  0  0  0
  1 36  1  0  0  0  0
  1 37  1  0  0  0  0
  1 38  1  0  0  0  0
  2  3  1  0  0  0  0
  2 30  1  0  0  0  0
  3  4  2  0  0  0  0
  3  5  1  0  0  0  0
  5  6  1  0  0  0  0
  5 39  1  0  0  0  0
  5 40  1  0  0  0  0
  6  7  1  0  0  0  0
  6 41  1  0  0  0  0
  6 42  1  0  0  0  0
  7  8  1  0  0  0  0
  7 26  1  0  0  0  0
  8  9  1  0  0  0  0
  8 43  1  0  0  0  0
  8 44  1  0  0  0  0
  9 10  1  0  0  0  0
  9 24  2  0  0  0  0
 10 11  2  0  0  0  0
 10 45  1  0  0  0  0
 11 12  1  0  0  0  0
 11 20  1  0  0  0  0
 12 13  2  0  0  0  0
 12 14  1  0  0  0  0
 14 15  1  0  0  0  0
 14 19  2  0  0  0  0
 15 16  2  0  0  0  0
 15 46  1  0  0  0  0
 16 17  1  0  0  0  0
 16 47  1  0  0  0  0
 17 18  2  0  0  0  0
 17 48  1  0  0  0  0
 18 19  1  0  0  0  0
 18 49  1  0  0  0  0
 19 50  1  0  0  0  0
 20 21  1  0  0  0  0
 20 22  2  0  0  0  0
 22 23  1  0  0  0  0
 22 24  1  0  0  0  0
 24 25  1  0  0  0  0
 25 26  2  0  0  0  0
 25 62  1  0  0  0  0
 26 27  1  0  0  0  0
 27 28  1  0  0  0  0
 27 29  1  0  0  0  0
 30 31  1  0  0  0  0
 30 35  1  0  0  0  0
 30 51  1  0  0  0  0
 31 32  1  0  0  0  0
 31 52  1  0  0  0  0
 31 53  1  0  0  0  0
 32 33  1  0  0  0  0
 32 54  1  0  0  0  0
 32 55  1  0  0  0  0
 33 34  1  0  0  0  0
 33 56  1  0  0  0  0
 33 57  1  0  0  0  0
 34 35  1  0  0  0  0
 34 58  1  0  0  0  0
 34 59  1  0  0  0  0
 35 60  1  0  0  0  0
 35 61  1  0  0  0  0
M  CHG  1  25   1
M  END
>  <PARENT_CMPD_ID>
2Q11

>  <STANDARD_TYPE>
Ki

>  <RELATION>
=

>  <STANDARD_VALUE>
0.011

>  <STANDARD_UNITS>
uM

>  <COMPOUND_KEY>
3a

>  <PUBMED_ID>
17685503

>  <JOURNAL>
J.Med.Chem.

>  <YEAR>
2007

>  <VOLUME>
50

>  <FIRST_PAGE>
4261

>  <Company>
JnJ

>  <Resolution>
2.4000001

>  <idx>
247

>  <Model>
Test

>  <target>
7.9586072

>  <des_pred_mlr>
5.9209599

>  <RF_Canvas>
6.5857668

>  <DNN_Canvas>
6.3068085

>  <pred_CoMFA>
5.9352999

>  <pred_COMSIA>
6.1761999

>  <pred_abm5>
5.8235526

>  <pred_ff8>
5.1543632

>  <pred_gau6>
6.5903234

>  <CID>
BACE_247

>  <RF_canvas>
0

>  <DNN_canvas>
0

$$$$
2WF4_3674
  MOE2015           3D

 79 83  0  0  1  0  0  0  0  0999 V2000
   24.3420   12.8770   23.4320 C   0  0  0  0  0  0  0  0  0  0  0  0
   24.3220   11.5240   23.3420 N   0  0  0  0  0  0  0  0  0  0  0  0
   23.1380   10.7950   22.8490 C   0  0  3  0  0  0  0  0  0  0  0  0
   22.4950   10.0440   24.0410 C   0  0  0  0  0  0  0  0  0  0  0  0
   23.5610    9.8040   21.7280 C   0  0  0  0  0  0  0  0  0  0  0  0
   21.7990   11.0260   24.9730 C   0  0  0  0  0  0  0  0  0  0  0  0
   23.3030   13.5600   23.4230 O   0  0  0  0  0  0  0  0  0  0  0  0
   25.6700   13.4660   23.5370 C   0  0  0  0  0  0  0  0  0  0  0  0
   25.9080   14.4590   24.5140 C   0  0  0  0  0  0  0  0  0  0  0  0
   27.1930   15.0810   24.6560 C   0  0  0  0  0  0  0  0  0  0  0  0
   28.2440   14.6740   23.7810 C   0  0  0  0  0  0  0  0  0  0  0  0
   27.9950   13.6480   22.7750 C   0  0  0  0  0  0  0  0  0  0  0  0
   26.7220   13.0690   22.6710 C   0  0  0  0  0  0  0  0  0  0  0  0
   24.4110   10.4650   20.6470 C   0  0  0  0  0  0  0  0  0  0  0  0
   25.6450    9.8790   20.2620 C   0  0  0  0  0  0  0  0  0  0  0  0
   26.4510   10.4800   19.2560 C   0  0  0  0  0  0  0  0  0  0  0  0
   26.0310   11.6790   18.6260 C   0  0  0  0  0  0  0  0  0  0  0  0
   24.8030   12.2780   18.9970 C   0  0  0  0  0  0  0  0  0  0  0  0
   23.9950   11.6780   20.0000 C   0  0  0  0  0  0  0  0  0  0  0  0
   21.1470   10.4410   26.1360 N   0  3  0  0  0  0  0  0  0  0  0  0
   21.4830    9.1850   23.5840 O   0  0  0  0  0  0  0  0  0  0  0  0
   20.4020   11.3490   27.0170 C   0  0  0  0  0  0  0  0  0  0  0  0
   21.2970   12.4550   27.6140 C   0  0  0  0  0  0  0  0  0  0  0  0
   20.5100   13.3700   28.5790 C   0  0  0  0  0  0  0  0  0  0  0  0
   19.8760   12.5660   29.5850 O   0  0  0  0  0  0  0  0  0  0  0  0
   18.9760   11.5520   29.1070 C   0  0  0  0  0  0  0  0  0  0  0  0
   19.7430   10.5810   28.1880 C   0  0  0  0  0  0  0  0  0  0  0  0
   29.6600   15.0630   23.6140 C   0  0  0  0  0  0  0  0  0  0  0  0
   30.1420   14.2790   22.5670 C   0  0  0  0  0  0  0  0  0  0  0  0
   29.1890   13.4560   22.0710 N   0  0  0  0  0  0  0  0  0  0  0  0
   27.3330   16.0580   25.6390 N   0  0  0  0  0  0  0  0  0  0  0  0
   28.7280   16.1590   26.5010 S   0  0  0  0  0  0  0  0  0  0  0  0
   29.9210   16.9560   25.4550 C   0  0  0  0  0  0  0  0  0  0  0  0
   29.3830   12.4940   20.9570 C   0  0  0  0  0  0  0  0  0  0  0  0
   29.6000   11.0350   21.4050 C   0  0  0  0  0  0  0  0  0  0  0  0
   29.1690   14.8170   26.7880 O   0  0  0  0  0  0  0  0  0  0  0  0
   28.4730   17.0190   27.6120 O   0  0  0  0  0  0  0  0  0  0  0  0
   30.5340   16.0800   24.3600 C   0  0  0  0  0  0  0  0  0  0  0  0
   23.4780    9.2760   24.6910 O   0  0  0  0  0  0  0  0  0  0  0  0
   26.2560   17.0360   25.8740 C   0  0  0  0  0  0  0  0  0  0  0  0
   25.1400   11.0010   23.6200 H   0  0  0  0  0  0  0  0  0  0  0  0
   22.4100   11.4880   22.4270 H   0  0  0  0  0  0  0  0  0  0  0  0
   22.6620    9.3970   21.2650 H   0  0  0  0  0  0  0  0  0  0  0  0
   24.1360    8.9940   22.1770 H   0  0  0  0  0  0  0  0  0  0  0  0
   21.0410   11.5560   24.3960 H   0  0  0  0  0  0  0  0  0  0  0  0
   22.5460   11.7360   25.3300 H   0  0  0  0  0  0  0  0  0  0  0  0
   25.1030   14.7570   25.1700 H   0  0  0  0  0  0  0  0  0  0  0  0
   26.5400   12.3120   21.9230 H   0  0  0  0  0  0  0  0  0  0  0  0
   25.9750    8.9670   20.7380 H   0  0  0  0  0  0  0  0  0  0  0  0
   27.3860   10.0220   18.9710 H   0  0  0  0  0  0  0  0  0  0  0  0
   26.6470   12.1340   17.8650 H   0  0  0  0  0  0  0  0  0  0  0  0
   24.4810   13.1910   18.5180 H   0  0  0  0  0  0  0  0  0  0  0  0
   23.0590   12.1390   20.2790 H   0  0  0  0  0  0  0  0  0  0  0  0
   21.8620    9.9960   26.6930 H   0  0  0  0  0  0  0  0  0  0  0  0
   20.4980    9.7430   25.8010 H   0  0  0  0  0  0  0  0  0  0  0  0
   20.8220    9.7240   23.1440 H   0  0  0  0  0  0  0  0  0  0  0  0
   19.6380   11.8080   26.3900 H   0  0  0  0  0  0  0  0  0  0  0  0
   21.6990   13.0610   26.8020 H   0  0  0  0  0  0  0  0  0  0  0  0
   22.1170   11.9890   28.1600 H   0  0  0  0  0  0  0  0  0  0  0  0
   19.7520   13.9200   28.0220 H   0  0  0  0  0  0  0  0  0  0  0  0
   21.1940   14.0730   29.0530 H   0  0  0  0  0  0  0  0  0  0  0  0
   18.1660   12.0190   28.5470 H   0  0  0  0  0  0  0  0  0  0  0  0
   18.5640   11.0030   29.9540 H   0  0  0  0  0  0  0  0  0  0  0  0
   20.5170   10.0760   28.7660 H   0  0  0  0  0  0  0  0  0  0  0  0
   19.0490    9.8430   27.7870 H   0  0  0  0  0  0  0  0  0  0  0  0
   31.1550   14.3230   22.1960 H   0  0  0  0  0  0  0  0  0  0  0  0
   30.7320   17.3180   26.0870 H   0  0  0  0  0  0  0  0  0  0  0  0
   29.4310   17.8020   24.9720 H   0  0  0  0  0  0  0  0  0  0  0  0
   30.2550   12.8080   20.3840 H   0  0  0  0  0  0  0  0  0  0  0  0
   28.4990   12.5270   20.3200 H   0  0  0  0  0  0  0  0  0  0  0  0
   30.4810   10.9780   22.0440 H   0  0  0  0  0  0  0  0  0  0  0  0
   29.7460   10.4040   20.5290 H   0  0  0  0  0  0  0  0  0  0  0  0
   28.7260   10.6910   21.9590 H   0  0  0  0  0  0  0  0  0  0  0  0
   30.9430   16.7550   23.6080 H   0  0  0  0  0  0  0  0  0  0  0  0
   31.3450   15.5180   24.8230 H   0  0  0  0  0  0  0  0  0  0  0  0
   24.1610    9.8770   24.9970 H   0  0  0  0  0  0  0  0  0  0  0  0
   25.4150   16.8150   25.2170 H   0  0  0  0  0  0  0  0  0  0  0  0
   26.6250   18.0400   25.6660 H   0  0  0  0  0  0  0  0  0  0  0  0
   25.9320   16.9770   26.9130 H   0  0  0  0  0  0  0  0  0  0  0  0
  1  2  1  0  0  0  0
  1  7  2  0  0  0  0
  1  8  1  0  0  0  0
  2  3  1  0  0  0  0
  2 41  1  0  0  0  0
  3  4  1  0  0  0  0
  3  5  1  0  0  0  0
  3 42  1  0  0  0  0
  4  6  1  0  0  0  0
  4 21  1  0  0  0  0
  4 39  1  0  0  0  0
  5 14  1  0  0  0  0
  5 43  1  0  0  0  0
  5 44  1  0  0  0  0
  6 20  1  0  0  0  0
  6 45  1  0  0  0  0
  6 46  1  0  0  0  0
  8  9  1  0  0  0  0
  8 13  2  0  0  0  0
  9 10  2  0  0  0  0
  9 47  1  0  0  0  0
 10 11  1  0  0  0  0
 10 31  1  0  0  0  0
 11 12  2  0  0  0  0
 11 28  1  0  0  0  0
 12 13  1  0  0  0  0
 12 30  1  0  0  0  0
 13 48  1  0  0  0  0
 14 15  1  0  0  0  0
 14 19  2  0  0  0  0
 15 16  2  0  0  0  0
 15 49  1  0  0  0  0
 16 17  1  0  0  0  0
 16 50  1  0  0  0  0
 17 18  2  0  0  0  0
 17 51  1  0  0  0  0
 18 19  1  0  0  0  0
 18 52  1  0  0  0  0
 19 53  1  0  0  0  0
 20 22  1  0  0  0  0
 20 54  1  0  0  0  0
 20 55  1  0  0  0  0
 21 56  1  0  0  0  0
 22 23  1  0  0  0  0
 22 27  1  0  0  0  0
 22 57  1  0  0  0  0
 23 24  1  0  0  0  0
 23 58  1  0  0  0  0
 23 59  1  0  0  0  0
 24 25  1  0  0  0  0
 24 60  1  0  0  0  0
 24 61  1  0  0  0  0
 25 26  1  0  0  0  0
 26 27  1  0  0  0  0
 26 62  1  0  0  0  0
 26 63  1  0  0  0  0
 27 64  1  0  0  0  0
 27 65  1  0  0  0  0
 28 29  2  0  0  0  0
 28 38  1  0  0  0  0
 29 30  1  0  0  0  0
 29 66  1  0  0  0  0
 30 34  1  0  0  0  0
 31 32  1  0  0  0  0
 31 40  1  0  0  0  0
 32 33  1  0  0  0  0
 32 36  2  0  0  0  0
 32 37  2  0  0  0  0
 33 38  1  0  0  0  0
 33 67  1  0  0  0  0
 33 68  1  0  0  0  0
 34 35  1  0  0  0  0
 34 69  1  0  0  0  0
 34 70  1  0  0  0  0
 35 71  1  0  0  0  0
 35 72  1  0  0  0  0
 35 73  1  0  0  0  0
 38 74  1  0  0  0  0
 38 75  1  0  0  0  0
 39 76  1  0  0  0  0
 40 77  1  0  0  0  0
 40 78  1  0  0  0  0
 40 79  1  0  0  0  0
M  CHG  1  20   1
M  END
>  <PARENT_CMPD_ID>
2WF4

>  <STANDARD_TYPE>
Cell

>  <RELATION>
=

>  <STANDARD_VALUE>
0.013

>  <STANDARD_UNITS>
uM

>  <COMPOUND_KEY>
29

>  <PUBMED_ID>
19406640

>  <JOURNAL>
Bioorg.Med.Chem.Lett.

>  <YEAR>
2009

>  <VOLUME>
19

>  <FIRST_PAGE>
3674

>  <Company>
GSK

>  <Resolution>
1.8

>  <idx>
248

>  <Model>
Test

>  <target>
7.8860564

>  <des_pred_mlr>
6.7592902

>  <RF_Canvas>
7.583838

>  <DNN_Canvas>
7.7732544

>  <pred_CoMFA>
6.8122001

>  <pred_COMSIA>
6.7191

>  <pred_abm5>
6.6776786

>  <pred_ff8>
7.6429605

>  <pred_gau6>
6.456264

>  <CID>
BACE_248

>  <RF_canvas>
1

>  <DNN_canvas>
1

$$$$
4FSL_9208
  MOE2015           3D

 57 59  0  0  0  0  0  0  0  0999 V2000
   22.5300   16.4240   27.1340 C   0  0  0  0  0  0  0  0  0  0  0  0
   21.6410   16.7270   27.6670 H   0  0  0  0  0  0  0  0  0  0  0  0
   24.1260   14.6220   26.2070 C   0  0  0  0  0  0  0  0  0  0  0  0
   24.3780   13.5800   26.0750 H   0  0  0  0  0  0  0  0  0  0  0  0
   23.4290   17.4900   26.4850 C   0  0  0  0  0  0  0  0  0  0  0  0
   23.1640   18.5310   26.5940 H   0  0  0  0  0  0  0  0  0  0  0  0
   25.0400   15.6460   25.5560 C   0  0  0  0  0  0  0  0  0  0  0  0
   25.9190   15.3340   25.0120 H   0  0  0  0  0  0  0  0  0  0  0  0
   24.0630   10.3480   20.6840 C   0  0  0  0  0  0  0  0  0  0  0  0
   24.4510    9.4240   21.0850 H   0  0  0  0  0  0  0  0  0  0  0  0
   22.1960   12.0950   20.5550 C   0  0  0  0  0  0  0  0  0  0  0  0
   21.2280   12.4870   20.8290 H   0  0  0  0  0  0  0  0  0  0  0  0
   22.8830   14.9400   27.0310 C   0  0  0  0  0  0  0  0  0  0  0  0
   21.3520   12.6020   27.2400 C   0  0  0  0  0  0  0  0  0  0  0  0
   22.6460   10.7440   21.0940 C   0  0  0  0  0  0  0  0  0  0  0  0
   24.9780   11.1430   19.7580 C   0  0  0  0  0  0  0  0  0  0  0  0
   24.4940   12.4780   19.1810 C   0  0  0  0  0  0  0  0  0  0  0  0
   24.6890   17.1260   25.6880 C   0  0  0  0  0  0  0  0  0  0  0  0
   23.1010   12.8930   19.6350 C   0  0  0  0  0  0  0  0  0  0  0  0
   21.9710   13.8970   27.6370 C   0  0  0  0  0  0  0  0  0  0  0  0
   20.5000   11.9550   28.2990 C   0  0  0  0  0  0  0  0  0  0  0  0
   21.4490   11.8390   25.9590 C   0  0  0  0  0  0  0  0  0  0  0  0
   26.2980   14.3090   18.8250 C   0  0  0  0  0  0  0  0  0  0  0  0
   22.0300    9.7500   24.5970 C   0  0  0  0  0  0  0  0  0  0  0  0
   26.3460   10.5430   19.4480 C   0  0  0  0  0  0  0  0  0  0  0  0
   19.6940   10.6590   28.3070 C   0  0  0  0  0  0  0  0  0  0  0  0
   27.2710   15.2270   18.0840 C   0  0  0  0  0  0  0  0  0  0  0  0
   26.8640   17.7040   24.4110 C   0  0  0  0  0  0  0  0  0  0  0  0
   21.5910   10.1880   22.0080 C   0  0  0  0  0  0  0  0  0  0  0  0
   21.5770   14.2230   29.0340 N   0  0  0  0  0  0  0  0  0  0  0  0
   21.9410   10.4520   25.8730 N   0  0  0  0  0  0  0  0  0  0  0  0
   22.4740    8.3550   24.3880 N   0  0  0  0  0  0  0  0  0  0  0  0
   21.9910    7.9630   23.5920 H   0  0  0  0  0  0  0  0  0  0  0  0
   23.1550    7.8690   24.9530 H   0  0  0  0  0  0  0  0  0  0  0  0
   25.3690   13.2800   18.3090 N   0  0  0  0  0  0  0  0  0  0  0  0
   25.3330   13.1200   17.3120 H   0  0  0  0  0  0  0  0  0  0  0  0
   21.5810   10.5310   23.4320 N   0  0  0  0  0  0  0  0  0  0  0  0
   21.2090   11.4450   23.6480 H   0  0  0  0  0  0  0  0  0  0  0  0
   21.0740   12.6290   24.8300 O   0  0  0  0  0  0  0  0  0  0  0  0
   26.2920   14.4910   20.2450 O   0  0  0  0  0  0  0  0  0  0  0  0
   25.6110   18.0020   25.0410 O   0  0  0  0  0  0  0  0  0  0  0  0
   20.5990   13.0760   29.6750 S   0  0  0  0  0  0  0  0  0  0  0  0
   22.2530   14.3710   19.1550 Cl  0  0  0  0  0  0  0  0  0  0  0  0
   26.2730    9.9090   18.5640 H   0  0  0  0  0  0  0  0  0  0  0  0
   26.6820    9.9460   20.2960 H   0  0  0  0  0  0  0  0  0  0  0  0
   27.0610   11.3450   19.2620 H   0  0  0  0  0  0  0  0  0  0  0  0
   18.6810   10.8590   27.9560 H   0  0  0  0  0  0  0  0  0  0  0  0
   19.6550   10.2610   29.3210 H   0  0  0  0  0  0  0  0  0  0  0  0
   20.1700    9.9310   27.6490 H   0  0  0  0  0  0  0  0  0  0  0  0
   26.7640   16.1540   17.8160 H   0  0  0  0  0  0  0  0  0  0  0  0
   27.6220   14.7300   17.1790 H   0  0  0  0  0  0  0  0  0  0  0  0
   28.1210   15.4510   18.7280 H   0  0  0  0  0  0  0  0  0  0  0  0
   27.3010   18.6230   24.0200 H   0  0  0  0  0  0  0  0  0  0  0  0
   26.7020   17.0020   23.5930 H   0  0  0  0  0  0  0  0  0  0  0  0
   27.5410   17.2610   25.1410 H   0  0  0  0  0  0  0  0  0  0  0  0
   21.6690    9.1020   21.9490 H   0  0  0  0  0  0  0  0  0  0  0  0
   20.6300   10.5060   21.6040 H   0  0  0  0  0  0  0  0  0  0  0  0
  1  2  1  0  0  0  0
  1  5  1  0  0  0  0
  1 13  2  0  0  0  0
  3  4  1  0  0  0  0
  3  7  2  0  0  0  0
  3 13  1  0  0  0  0
  5  6  1  0  0  0  0
  5 18  2  0  0  0  0
  7  8  1  0  0  0  0
  7 18  1  0  0  0  0
  9 10  1  0  0  0  0
  9 15  2  0  0  0  0
  9 16  1  0  0  0  0
 11 12  1  0  0  0  0
 11 15  1  0  0  0  0
 11 19  2  0  0  0  0
 13 20  1  0  0  0  0
 14 20  1  0  0  0  0
 14 21  2  0  0  0  0
 14 22  1  0  0  0  0
 15 29  1  0  0  0  0
 16 17  2  0  0  0  0
 16 25  1  0  0  0  0
 17 19  1  0  0  0  0
 17 35  1  0  0  0  0
 18 41  1  0  0  0  0
 19 43  1  0  0  0  0
 20 30  2  0  0  0  0
 21 26  1  0  0  0  0
 21 42  1  0  0  0  0
 22 31  1  0  0  0  0
 22 39  2  0  0  0  0
 23 27  1  0  0  0  0
 23 35  1  0  0  0  0
 23 40  2  0  0  0  0
 24 31  2  0  0  0  0
 24 32  1  0  0  0  0
 24 37  1  0  0  0  0
 25 44  1  0  0  0  0
 25 45  1  0  0  0  0
 25 46  1  0  0  0  0
 26 47  1  0  0  0  0
 26 48  1  0  0  0  0
 26 49  1  0  0  0  0
 27 50  1  0  0  0  0
 27 51  1  0  0  0  0
 27 52  1  0  0  0  0
 28 41  1  0  0  0  0
 28 53  1  0  0  0  0
 28 54  1  0  0  0  0
 28 55  1  0  0  0  0
 29 37  1  0  0  0  0
 29 56  1  0  0  0  0
 29 57  1  0  0  0  0
 30 42  1  0  0  0  0
 32 33  1  0  0  0  0
 32 34  1  0  0  0  0
 35 36  1  0  0  0  0
 37 38  1  0  0  0  0
M  END
>  <PARENT_CMPD_ID>
4FSL

>  <STANDARD_TYPE>
Ki

>  <RELATION>
=

>  <STANDARD_VALUE>
0.02

>  <STANDARD_UNITS>
uM

>  <COMPOUND_KEY>
17g

>  <PUBMED_ID>
23030502

>  <JOURNAL>
J.Med.Chem.

>  <YEAR>
2012

>  <VOLUME>
55

>  <FIRST_PAGE>
9208

>  <Company>
BMS

>  <Resolution>
2.5

>  <idx>
249

>  <Model>
Test

>  <target>
7.6989698

>  <des_pred_mlr>
6.3866401

>  <RF_Canvas>
6.9708304

>  <DNN_Canvas>
7.165288

>  <pred_CoMFA>
5.0780001

>  <pred_COMSIA>
6.0265999

>  <pred_abm5>
5.3870444

>  <pred_ff8>
5.6240335

>  <pred_gau6>
5.6565027

>  <CID>
BACE_249

>  <RF_canvas>
1

>  <DNN_canvas>
0

$$$$
4GID_9195
  MOE2015           3D

 95 97  0  0  1  0  0  0  0  0999 V2000
   15.6520    8.9700   25.0350 C   0  0  0  0  0  0  0  0  0  0  0  0
   16.2670    9.9470   24.0330 C   0  0  0  0  0  0  0  0  0  0  0  0
   15.1600   10.5180   23.1410 C   0  0  0  0  0  0  0  0  0  0  0  0
   17.0260   11.0400   24.7860 C   0  0  0  0  0  0  0  0  0  0  0  0
   18.0820   10.4580   25.6340 N   0  0  0  0  0  0  0  0  0  0  0  0
   19.3750   11.0840   25.3170 C   0  0  0  0  0  0  0  0  0  0  0  0
   19.4150   12.1990   24.7900 O   0  0  0  0  0  0  0  0  0  0  0  0
   20.5050   10.5950   26.2400 C   0  0  3  0  0  0  0  0  0  0  0  0
   20.3910   11.3060   27.5970 C   0  0  3  0  0  0  0  0  0  0  0  0
   21.0420   12.6900   27.5830 C   0  0  0  0  0  0  0  0  0  0  0  0
   19.0430   11.3390   28.0820 O   0  0  0  0  0  0  0  0  0  0  0  0
   21.8590   10.7470   25.6830 N   0  3  0  0  0  0  0  0  0  0  0  0
   22.0160    9.9080   24.4840 C   0  0  0  0  0  0  0  0  0  0  0  0
   22.6330   10.6590   23.3000 C   0  0  3  0  0  0  0  0  0  0  0  0
   22.8240    9.7120   22.1100 C   0  0  0  0  0  0  0  0  0  0  0  0
   23.5460   10.3060   21.0760 C   0  0  0  0  0  0  0  0  0  0  0  0
   24.5630    9.6050   20.4340 C   0  0  0  0  0  0  0  0  0  0  0  0
   25.3290   10.2130   19.4440 C   0  0  0  0  0  0  0  0  0  0  0  0
   25.0890   11.5370   19.0900 C   0  0  0  0  0  0  0  0  0  0  0  0
   24.0760   12.2400   19.7330 C   0  0  0  0  0  0  0  0  0  0  0  0
   23.3030   11.6270   20.7140 C   0  0  0  0  0  0  0  0  0  0  0  0
   23.9210   11.2900   23.6250 N   0  0  0  0  0  0  0  0  0  0  0  0
   23.9760   12.5710   24.0170 C   0  0  0  0  0  0  0  0  0  0  0  0
   22.9670   13.2530   24.1880 O   0  0  0  0  0  0  0  0  0  0  0  0
   25.2560   13.0750   24.2300 C   0  0  0  0  0  0  0  0  0  0  0  0
   26.2620   12.6810   23.3540 C   0  0  0  0  0  0  0  0  0  0  0  0
   25.4910   14.1390   25.0990 C   0  0  0  0  0  0  0  0  0  0  0  0
   26.7250   14.7890   25.1290 C   0  0  0  0  0  0  0  0  0  0  0  0
   26.8990   15.9240   25.8120 N   0  0  0  0  0  0  0  0  0  0  0  0
   25.7370   16.2980   26.6320 C   0  0  0  0  0  0  0  0  0  0  0  0
   28.2880   16.0560   26.6820 S   0  0  0  0  0  0  0  0  0  0  0  0
   27.9810   16.5430   28.0980 O   0  0  0  0  0  0  0  0  0  0  0  0
   29.0180   14.7130   26.7590 O   0  0  0  0  0  0  0  0  0  0  0  0
   29.3540   17.2350   25.8770 C   0  0  0  0  0  0  0  0  0  0  0  0
   27.6990   14.4030   24.2140 C   0  0  0  0  0  0  0  0  0  0  0  0
   27.4820   13.3470   23.3340 C   0  0  0  0  0  0  0  0  0  0  0  0
   28.5290   12.8690   22.5540 C   0  0  0  0  0  0  0  0  0  0  0  0
   29.2950   13.6500   21.9900 O   0  0  0  0  0  0  0  0  0  0  0  0
   28.5430   11.5490   22.3220 N   0  0  0  0  0  0  0  0  0  0  0  0
   29.6040   10.9410   21.5050 C   0  0  3  0  0  0  0  0  0  0  0  0
   28.9880   10.1980   20.3170 C   0  0  0  0  0  0  0  0  0  0  0  0
   30.4120   10.0870   22.2520 C   0  0  0  0  0  0  0  0  0  0  0  0
   31.7740   10.3460   22.3520 C   0  0  0  0  0  0  0  0  0  0  0  0
   32.5770    9.6000   23.2120 C   0  0  0  0  0  0  0  0  0  0  0  0
   32.0170    8.5870   23.9820 C   0  0  0  0  0  0  0  0  0  0  0  0
   30.6540    8.3180   23.8800 C   0  0  0  0  0  0  0  0  0  0  0  0
   29.8580    9.0590   23.0120 C   0  0  0  0  0  0  0  0  0  0  0  0
   15.1110    8.1910   24.4980 H   0  0  0  0  0  0  0  0  0  0  0  0
   14.9640    9.5050   25.6890 H   0  0  0  0  0  0  0  0  0  0  0  0
   16.4430    8.5170   25.6330 H   0  0  0  0  0  0  0  0  0  0  0  0
   16.9830    9.4360   23.3890 H   0  0  0  0  0  0  0  0  0  0  0  0
   14.4270   11.0360   23.7590 H   0  0  0  0  0  0  0  0  0  0  0  0
   14.6720    9.7060   22.6020 H   0  0  0  0  0  0  0  0  0  0  0  0
   15.5940   11.2180   22.4270 H   0  0  0  0  0  0  0  0  0  0  0  0
   16.3270   11.5920   25.4150 H   0  0  0  0  0  0  0  0  0  0  0  0
   17.4810   11.7200   24.0660 H   0  0  0  0  0  0  0  0  0  0  0  0
   17.9390    9.7380   26.3280 H   0  0  0  0  0  0  0  0  0  0  0  0
   20.3700    9.5200   26.3550 H   0  0  0  0  0  0  0  0  0  0  0  0
   20.9580   10.7080   28.3100 H   0  0  0  0  0  0  0  0  0  0  0  0
   20.5110   13.3340   26.8820 H   0  0  0  0  0  0  0  0  0  0  0  0
   22.0840   12.5980   27.2750 H   0  0  0  0  0  0  0  0  0  0  0  0
   20.9950   13.1240   28.5820 H   0  0  0  0  0  0  0  0  0  0  0  0
   18.5260   11.8630   27.4660 H   0  0  0  0  0  0  0  0  0  0  0  0
   22.5380   10.4670   26.3770 H   0  0  0  0  0  0  0  0  0  0  0  0
   22.0100   11.7140   25.4350 H   0  0  0  0  0  0  0  0  0  0  0  0
   21.0340    9.5400   24.1870 H   0  0  0  0  0  0  0  0  0  0  0  0
   22.6600    9.0650   24.7330 H   0  0  0  0  0  0  0  0  0  0  0  0
   21.9330   11.4550   23.0450 H   0  0  0  0  0  0  0  0  0  0  0  0
   21.8440    9.4210   21.7320 H   0  0  0  0  0  0  0  0  0  0  0  0
   23.3600    8.8260   22.4490 H   0  0  0  0  0  0  0  0  0  0  0  0
   24.7600    8.5790   20.7070 H   0  0  0  0  0  0  0  0  0  0  0  0
   26.1110    9.6560   18.9500 H   0  0  0  0  0  0  0  0  0  0  0  0
   25.6830   12.0140   18.3240 H   0  0  0  0  0  0  0  0  0  0  0  0
   23.8880   13.2700   19.4690 H   0  0  0  0  0  0  0  0  0  0  0  0
   22.5100   12.1790   21.1970 H   0  0  0  0  0  0  0  0  0  0  0  0
   24.7730   10.7530   23.5520 H   0  0  0  0  0  0  0  0  0  0  0  0
   26.0940   11.8510   22.6840 H   0  0  0  0  0  0  0  0  0  0  0  0
   24.7030   14.4660   25.7610 H   0  0  0  0  0  0  0  0  0  0  0  0
   24.8280   16.2040   26.0380 H   0  0  0  0  0  0  0  0  0  0  0  0
   25.8460   17.3290   26.9680 H   0  0  0  0  0  0  0  0  0  0  0  0
   25.6760   15.6380   27.4970 H   0  0  0  0  0  0  0  0  0  0  0  0
   28.8480   18.1980   25.8140 H   0  0  0  0  0  0  0  0  0  0  0  0
   29.5920   16.8830   24.8730 H   0  0  0  0  0  0  0  0  0  0  0  0
   30.2740   17.3440   26.4510 H   0  0  0  0  0  0  0  0  0  0  0  0
   28.6400   14.9320   24.1860 H   0  0  0  0  0  0  0  0  0  0  0  0
   27.8170   10.9650   22.7130 H   0  0  0  0  0  0  0  0  0  0  0  0
   30.2410   11.7440   21.1350 H   0  0  0  0  0  0  0  0  0  0  0  0
   28.3500    9.3940   20.6830 H   0  0  0  0  0  0  0  0  0  0  0  0
   29.7820    9.7790   19.6990 H   0  0  0  0  0  0  0  0  0  0  0  0
   28.3940   10.8920   19.7230 H   0  0  0  0  0  0  0  0  0  0  0  0
   32.2140   11.1330   21.7570 H   0  0  0  0  0  0  0  0  0  0  0  0
   33.6340    9.8090   23.2800 H   0  0  0  0  0  0  0  0  0  0  0  0
   32.6350    8.0120   24.6550 H   0  0  0  0  0  0  0  0  0  0  0  0
   30.2140    7.5320   24.4760 H   0  0  0  0  0  0  0  0  0  0  0  0
   28.8050    8.8360   22.9270 H   0  0  0  0  0  0  0  0  0  0  0  0
  1  2  1  0  0  0  0
  1 48  1  0  0  0  0
  1 49  1  0  0  0  0
  1 50  1  0  0  0  0
  2  3  1  0  0  0  0
  2  4  1  0  0  0  0
  2 51  1  0  0  0  0
  3 52  1  0  0  0  0
  3 53  1  0  0  0  0
  3 54  1  0  0  0  0
  4  5  1  0  0  0  0
  4 55  1  0  0  0  0
  4 56  1  0  0  0  0
  5  6  1  0  0  0  0
  5 57  1  0  0  0  0
  6  7  2  0  0  0  0
  6  8  1  0  0  0  0
  8  9  1  0  0  0  0
  8 12  1  0  0  0  0
  8 58  1  0  0  0  0
  9 10  1  0  0  0  0
  9 11  1  0  0  0  0
  9 59  1  0  0  0  0
 10 60  1  0  0  0  0
 10 61  1  0  0  0  0
 10 62  1  0  0  0  0
 11 63  1  0  0  0  0
 12 13  1  0  0  0  0
 12 64  1  0  0  0  0
 12 65  1  0  0  0  0
 13 14  1  0  0  0  0
 13 66  1  0  0  0  0
 13 67  1  0  0  0  0
 14 15  1  0  0  0  0
 14 22  1  0  0  0  0
 14 68  1  0  0  0  0
 15 16  1  0  0  0  0
 15 69  1  0  0  0  0
 15 70  1  0  0  0  0
 16 17  1  0  0  0  0
 16 21  2  0  0  0  0
 17 18  2  0  0  0  0
 17 71  1  0  0  0  0
 18 19  1  0  0  0  0
 18 72  1  0  0  0  0
 19 20  2  0  0  0  0
 19 73  1  0  0  0  0
 20 21  1  0  0  0  0
 20 74  1  0  0  0  0
 21 75  1  0  0  0  0
 22 23  1  0  0  0  0
 22 76  1  0  0  0  0
 23 24  2  0  0  0  0
 23 25  1  0  0  0  0
 25 26  1  0  0  0  0
 25 27  2  0  0  0  0
 26 36  2  0  0  0  0
 26 77  1  0  0  0  0
 27 28  1  0  0  0  0
 27 78  1  0  0  0  0
 28 29  1  0  0  0  0
 28 35  2  0  0  0  0
 29 30  1  0  0  0  0
 29 31  1  0  0  0  0
 30 79  1  0  0  0  0
 30 80  1  0  0  0  0
 30 81  1  0  0  0  0
 31 32  2  0  0  0  0
 31 33  2  0  0  0  0
 31 34  1  0  0  0  0
 34 82  1  0  0  0  0
 34 83  1  0  0  0  0
 34 84  1  0  0  0  0
 35 36  1  0  0  0  0
 35 85  1  0  0  0  0
 36 37  1  0  0  0  0
 37 38  2  0  0  0  0
 37 39  1  0  0  0  0
 39 40  1  0  0  0  0
 39 86  1  0  0  0  0
 40 41  1  0  0  0  0
 40 42  1  0  0  0  0
 40 87  1  0  0  0  0
 41 88  1  0  0  0  0
 41 89  1  0  0  0  0
 41 90  1  0  0  0  0
 42 43  1  0  0  0  0
 42 47  2  0  0  0  0
 43 44  2  0  0  0  0
 43 91  1  0  0  0  0
 44 45  1  0  0  0  0
 44 92  1  0  0  0  0
 45 46  2  0  0  0  0
 45 93  1  0  0  0  0
 46 47  1  0  0  0  0
 46 94  1  0  0  0  0
 47 95  1  0  0  0  0
M  CHG  1  12   1
M  END
>  <PARENT_CMPD_ID>
4GID

>  <STANDARD_TYPE>
Ki

>  <RELATION>
=

>  <STANDARD_VALUE>
0.025

>  <STANDARD_UNITS>
uM

>  <COMPOUND_KEY>
5

>  <PUBMED_ID>
22954357

>  <JOURNAL>
J.Med.Chem.

>  <YEAR>
2012

>  <VOLUME>
55

>  <FIRST_PAGE>
9195

>  <Company>
OMRF

>  <Resolution>
2

>  <idx>
250

>  <Model>
Test

>  <target>
7.6020598

>  <des_pred_mlr>
7.44909

>  <RF_Canvas>
7.4999514

>  <DNN_Canvas>
7.4221616

>  <pred_CoMFA>
7.8271999

>  <pred_COMSIA>
8.1732998

>  <pred_abm5>
7.8292022

>  <pred_ff8>
8.2912636

>  <pred_gau6>
8.0152359

>  <CID>
BACE_250

>  <RF_canvas>
1

>  <DNN_canvas>
1

$$$$
1XS7_15
  MOE2015           3D

114115  0  0  1  0  0  0  0  0999 V2000
   27.2260   16.4320   21.5660 C   0  0  3  0  0  0  0  0  0  0  0  0
   28.5350   15.9630   20.8200 C   0  0  0  0  0  0  0  0  0  0  0  0
   28.6200   16.5730   19.3970 C   0  0  0  0  0  0  0  0  0  0  0  0
   28.6680   14.4070   20.6840 C   0  0  0  0  0  0  0  0  0  0  0  0
   27.0740   17.9340   21.6670 N   0  0  0  0  0  0  0  0  0  0  0  0
   27.7330   18.8730   22.5160 C   0  0  0  0  0  0  0  0  0  0  0  0
   27.3810   20.0520   22.3680 O   0  0  0  0  0  0  0  0  0  0  0  0
   28.7050   18.5160   23.4740 O   0  0  0  0  0  0  0  0  0  0  0  0
   30.0060   19.1320   23.4200 C   0  0  0  0  0  0  0  0  0  0  0  0
   27.0710   15.8400   23.0050 C   0  0  0  0  0  0  0  0  0  0  0  0
   27.9900   15.5600   23.7310 O   0  0  0  0  0  0  0  0  0  0  0  0
   25.8050   15.6970   23.4160 N   0  0  0  0  0  0  0  0  0  0  0  0
   25.3680   14.4910   24.1130 C   0  0  3  0  0  0  0  0  0  0  0  0
   24.9430   14.7330   25.5950 C   0  0  0  0  0  0  0  0  0  0  0  0
   26.1000   15.1400   26.5510 C   0  0  0  0  0  0  0  0  0  0  0  0
   25.8460   15.7950   27.5630 O   0  0  0  0  0  0  0  0  0  0  0  0
   27.3940   14.7060   26.2360 N   0  0  0  0  0  0  0  0  0  0  0  0
   24.1630   13.8990   23.3210 C   0  0  0  0  0  0  0  0  0  0  0  0
   23.1510   14.5890   23.1080 O   0  0  0  0  0  0  0  0  0  0  0  0
   30.7570   18.9370   24.7480 C   0  0  0  0  0  0  0  0  0  0  0  0
   30.8120   17.4540   25.1560 C   0  0  0  0  0  0  0  0  0  0  0  0
   29.6060   17.0060   26.0100 C   0  0  0  0  0  0  0  0  0  0  0  0
   29.7230   15.5150   26.3640 C   0  0  0  0  0  0  0  0  0  0  0  0
   28.5370   15.0310   27.1470 C   0  0  0  0  0  0  0  0  0  0  0  0
   24.3490   12.5690   22.8830 N   0  0  0  0  0  0  0  0  0  0  0  0
   23.3260   11.8130   22.0850 C   0  0  3  0  0  0  0  0  0  0  0  0
   22.6000   10.8010   23.0430 C   0  0  3  0  0  0  0  0  0  0  0  0
   23.4020   10.5390   24.2150 O   0  0  0  0  0  0  0  0  0  0  0  0
   23.9500   11.0990   20.8340 C   0  0  0  0  0  0  0  0  0  0  0  0
   24.7120   12.0230   19.8100 C   0  0  0  0  0  0  0  0  0  0  0  0
   23.8090   13.1310   19.2030 C   0  0  0  0  0  0  0  0  0  0  0  0
   25.3030   11.2100   18.6380 C   0  0  0  0  0  0  0  0  0  0  0  0
   21.1810   11.3400   23.4250 C   0  0  0  0  0  0  0  0  0  0  0  0
   20.5970   11.4000   24.8900 C   0  0  3  0  0  0  0  0  0  0  0  0
   21.4280   12.2130   25.8990 C   0  0  0  0  0  0  0  0  0  0  0  0
   19.1690   12.0060   24.7960 C   0  0  0  0  0  0  0  0  0  0  0  0
   18.9730   13.2270   24.8150 O   0  0  0  0  0  0  0  0  0  0  0  0
   18.1260   11.0450   24.6450 N   0  0  0  0  0  0  0  0  0  0  0  0
   16.6430   11.3340   24.4830 C   0  0  3  0  0  0  0  0  0  0  0  0
   15.8090   10.0150   24.2280 C   0  0  0  0  0  0  0  0  0  0  0  0
   16.1820   12.1080   25.7530 C   0  0  0  0  0  0  0  0  0  0  0  0
   16.6040   11.8010   26.8610 O   0  0  0  0  0  0  0  0  0  0  0  0
   16.2610    9.2670   22.9700 C   0  0  0  0  0  0  0  0  0  0  0  0
   14.3180   10.2710   24.0480 C   0  0  0  0  0  0  0  0  0  0  0  0
   15.2760   13.1470   25.4950 N   0  0  0  0  0  0  0  0  0  0  0  0
   14.6960   14.0230   26.5470 C   0  0  0  0  0  0  0  0  0  0  0  0
   14.1920   15.3590   25.9910 C   0  0  0  0  0  0  0  0  0  0  0  0
   12.7970   15.6130   25.7300 C   0  0  0  0  0  0  0  0  0  0  0  0
   12.3540   16.8790   25.2100 C   0  0  0  0  0  0  0  0  0  0  0  0
   13.3100   17.9180   24.9470 C   0  0  0  0  0  0  0  0  0  0  0  0
   14.7010   17.6820   25.2010 C   0  0  0  0  0  0  0  0  0  0  0  0
   15.1290   16.4210   25.7190 C   0  0  0  0  0  0  0  0  0  0  0  0
   26.4390   16.0360   20.9240 H   0  0  0  0  0  0  0  0  0  0  0  0
   29.3510   16.3200   21.4490 H   0  0  0  0  0  0  0  0  0  0  0  0
   27.7940   16.1990   18.7920 H   0  0  0  0  0  0  0  0  0  0  0  0
   29.5660   16.2890   18.9360 H   0  0  0  0  0  0  0  0  0  0  0  0
   28.5600   17.6590   19.4630 H   0  0  0  0  0  0  0  0  0  0  0  0
   27.8610   14.0270   20.0580 H   0  0  0  0  0  0  0  0  0  0  0  0
   28.6080   13.9500   21.6720 H   0  0  0  0  0  0  0  0  0  0  0  0
   29.6270   14.1630   20.2280 H   0  0  0  0  0  0  0  0  0  0  0  0
   26.3990   18.3360   21.0330 H   0  0  0  0  0  0  0  0  0  0  0  0
   29.8890   20.1990   23.2290 H   0  0  0  0  0  0  0  0  0  0  0  0
   30.5830   18.6790   22.6130 H   0  0  0  0  0  0  0  0  0  0  0  0
   25.1400   16.4370   23.2410 H   0  0  0  0  0  0  0  0  0  0  0  0
   26.2160   13.8070   24.1540 H   0  0  0  0  0  0  0  0  0  0  0  0
   24.4990   13.8130   25.9740 H   0  0  0  0  0  0  0  0  0  0  0  0
   24.1980   15.5280   25.6080 H   0  0  0  0  0  0  0  0  0  0  0  0
   27.5560   14.1730   25.3930 H   0  0  0  0  0  0  0  0  0  0  0  0
   30.2460   19.5000   25.5290 H   0  0  0  0  0  0  0  0  0  0  0  0
   31.7750   19.3110   24.6370 H   0  0  0  0  0  0  0  0  0  0  0  0
   31.7230   17.2880   25.7310 H   0  0  0  0  0  0  0  0  0  0  0  0
   30.8380   16.8480   24.2510 H   0  0  0  0  0  0  0  0  0  0  0  0
   28.6870   17.1700   25.4470 H   0  0  0  0  0  0  0  0  0  0  0  0
   29.5790   17.5920   26.9290 H   0  0  0  0  0  0  0  0  0  0  0  0
   30.6240   15.3640   26.9590 H   0  0  0  0  0  0  0  0  0  0  0  0
   29.7960   14.9380   25.4420 H   0  0  0  0  0  0  0  0  0  0  0  0
   28.8170   14.1360   27.7020 H   0  0  0  0  0  0  0  0  0  0  0  0
   28.2280   15.8090   27.8440 H   0  0  0  0  0  0  0  0  0  0  0  0
   25.2140   12.1030   23.1180 H   0  0  0  0  0  0  0  0  0  0  0  0
   22.5980   12.5160   21.6790 H   0  0  0  0  0  0  0  0  0  0  0  0
   22.4700    9.8540   22.5200 H   0  0  0  0  0  0  0  0  0  0  0  0
   23.5190   11.3710   24.6790 H   0  0  0  0  0  0  0  0  0  0  0  0
   23.1410   10.6040   20.2960 H   0  0  0  0  0  0  0  0  0  0  0  0
   24.6560   10.3520   21.1960 H   0  0  0  0  0  0  0  0  0  0  0  0
   25.5070   12.4880   20.3930 H   0  0  0  0  0  0  0  0  0  0  0  0
   23.0120   12.6710   18.6190 H   0  0  0  0  0  0  0  0  0  0  0  0
   24.4070   13.7740   18.5580 H   0  0  0  0  0  0  0  0  0  0  0  0
   23.3740   13.7260   20.0060 H   0  0  0  0  0  0  0  0  0  0  0  0
   24.4940   10.7530   18.0680 H   0  0  0  0  0  0  0  0  0  0  0  0
   25.9570   10.4310   19.0300 H   0  0  0  0  0  0  0  0  0  0  0  0
   25.8760   11.8720   17.9890 H   0  0  0  0  0  0  0  0  0  0  0  0
   20.4770   10.7320   22.8570 H   0  0  0  0  0  0  0  0  0  0  0  0
   21.1520   12.3660   23.0590 H   0  0  0  0  0  0  0  0  0  0  0  0
   20.6070   10.3810   25.2760 H   0  0  0  0  0  0  0  0  0  0  0  0
   21.4670   13.2550   25.5820 H   0  0  0  0  0  0  0  0  0  0  0  0
   22.4400   11.8100   25.9450 H   0  0  0  0  0  0  0  0  0  0  0  0
   20.9660   12.1500   26.8840 H   0  0  0  0  0  0  0  0  0  0  0  0
   18.4010   10.0730   24.6460 H   0  0  0  0  0  0  0  0  0  0  0  0
   16.4660   11.9470   23.5990 H   0  0  0  0  0  0  0  0  0  0  0  0
   15.9890    9.4230   25.1250 H   0  0  0  0  0  0  0  0  0  0  0  0
   16.0680    9.8830   22.0920 H   0  0  0  0  0  0  0  0  0  0  0  0
   15.7080    8.3310   22.8850 H   0  0  0  0  0  0  0  0  0  0  0  0
   17.3280    9.0540   23.0380 H   0  0  0  0  0  0  0  0  0  0  0  0
   14.1570   10.8640   23.1480 H   0  0  0  0  0  0  0  0  0  0  0  0
   13.9350   10.8130   24.9130 H   0  0  0  0  0  0  0  0  0  0  0  0
   13.7950    9.3190   23.9550 H   0  0  0  0  0  0  0  0  0  0  0  0
   15.0010   13.3100   24.5370 H   0  0  0  0  0  0  0  0  0  0  0  0
   15.4620   14.2240   27.2960 H   0  0  0  0  0  0  0  0  0  0  0  0
   13.8600   13.5020   27.0130 H   0  0  0  0  0  0  0  0  0  0  0  0
   12.0710   14.8380   25.9290 H   0  0  0  0  0  0  0  0  0  0  0  0
   11.3050   17.0480   25.0180 H   0  0  0  0  0  0  0  0  0  0  0  0
   12.9830   18.8720   24.5600 H   0  0  0  0  0  0  0  0  0  0  0  0
   15.4260   18.4570   25.0010 H   0  0  0  0  0  0  0  0  0  0  0  0
   16.1790   16.2590   25.9110 H   0  0  0  0  0  0  0  0  0  0  0  0
  1  2  1  0  0  0  0
  1  5  1  0  0  0  0
  1 10  1  0  0  0  0
  1 53  1  0  0  0  0
  2  3  1  0  0  0  0
  2  4  1  0  0  0  0
  2 54  1  0  0  0  0
  3 55  1  0  0  0  0
  3 56  1  0  0  0  0
  3 57  1  0  0  0  0
  4 58  1  0  0  0  0
  4 59  1  0  0  0  0
  4 60  1  0  0  0  0
  5  6  1  0  0  0  0
  5 61  1  0  0  0  0
  6  7  2  0  0  0  0
  6  8  1  0  0  0  0
  8  9  1  0  0  0  0
  9 20  1  0  0  0  0
  9 62  1  0  0  0  0
  9 63  1  0  0  0  0
 10 11  2  0  0  0  0
 10 12  1  0  0  0  0
 12 13  1  0  0  0  0
 12 64  1  0  0  0  0
 13 14  1  0  0  0  0
 13 18  1  0  0  0  0
 13 65  1  0  0  0  0
 14 15  1  0  0  0  0
 14 66  1  0  0  0  0
 14 67  1  0  0  0  0
 15 16  2  0  0  0  0
 15 17  1  0  0  0  0
 17 24  1  0  0  0  0
 17 68  1  0  0  0  0
 18 19  2  0  0  0  0
 18 25  1  0  0  0  0
 20 21  1  0  0  0  0
 20 69  1  0  0  0  0
 20 70  1  0  0  0  0
 21 22  1  0  0  0  0
 21 71  1  0  0  0  0
 21 72  1  0  0  0  0
 22 23  1  0  0  0  0
 22 73  1  0  0  0  0
 22 74  1  0  0  0  0
 23 24  1  0  0  0  0
 23 75  1  0  0  0  0
 23 76  1  0  0  0  0
 24 77  1  0  0  0  0
 24 78  1  0  0  0  0
 25 26  1  0  0  0  0
 25 79  1  0  0  0  0
 26 27  1  0  0  0  0
 26 29  1  0  0  0  0
 26 80  1  0  0  0  0
 27 28  1  0  0  0  0
 27 33  1  0  0  0  0
 27 81  1  0  0  0  0
 28 82  1  0  0  0  0
 29 30  1  0  0  0  0
 29 83  1  0  0  0  0
 29 84  1  0  0  0  0
 30 31  1  0  0  0  0
 30 32  1  0  0  0  0
 30 85  1  0  0  0  0
 31 86  1  0  0  0  0
 31 87  1  0  0  0  0
 31 88  1  0  0  0  0
 32 89  1  0  0  0  0
 32 90  1  0  0  0  0
 32 91  1  0  0  0  0
 33 34  1  0  0  0  0
 33 92  1  0  0  0  0
 33 93  1  0  0  0  0
 34 35  1  0  0  0  0
 34 36  1  0  0  0  0
 34 94  1  0  0  0  0
 35 95  1  0  0  0  0
 35 96  1  0  0  0  0
 35 97  1  0  0  0  0
 36 37  2  0  0  0  0
 36 38  1  0  0  0  0
 38 39  1  0  0  0  0
 38 98  1  0  0  0  0
 39 40  1  0  0  0  0
 39 41  1  0  0  0  0
 39 99  1  0  0  0  0
 40 43  1  0  0  0  0
 40 44  1  0  0  0  0
 40100  1  0  0  0  0
 41 42  2  0  0  0  0
 41 45  1  0  0  0  0
 43101  1  0  0  0  0
 43102  1  0  0  0  0
 43103  1  0  0  0  0
 44104  1  0  0  0  0
 44105  1  0  0  0  0
 44106  1  0  0  0  0
 45 46  1  0  0  0  0
 45107  1  0  0  0  0
 46 47  1  0  0  0  0
 46108  1  0  0  0  0
 46109  1  0  0  0  0
 47 48  1  0  0  0  0
 47 52  2  0  0  0  0
 48 49  2  0  0  0  0
 48110  1  0  0  0  0
 49 50  1  0  0  0  0
 49111  1  0  0  0  0
 50 51  2  0  0  0  0
 50112  1  0  0  0  0
 51 52  1  0  0  0  0
 51113  1  0  0  0  0
 52114  1  0  0  0  0
M  END
>  <PARENT_CMPD_ID>
1XS7

>  <STANDARD_TYPE>
Ki

>  <RELATION>
=

>  <STANDARD_VALUE>
0.0251

>  <STANDARD_UNITS>
uM

>  <COMPOUND_KEY>
2c

>  <PUBMED_ID>
15582402

>  <JOURNAL>
Bioorg.Med.Chem.Lett.

>  <YEAR>
2005

>  <VOLUME>
15

>  <FIRST_PAGE>
15

>  <Company>
UIC

>  <Resolution>
2.8

>  <idx>
251

>  <Model>
Test

>  <target>
7.6003261

>  <des_pred_mlr>
8.4479399

>  <RF_Canvas>
7.1942196

>  <DNN_Canvas>
6.6028051

>  <pred_CoMFA>
7.5268998

>  <pred_COMSIA>
6.5373001

>  <pred_abm5>
6.4300418

>  <pred_ff8>
5.1056781

>  <pred_gau6>
6.9909277

>  <CID>
BACE_251

>  <RF_canvas>
0

>  <DNN_canvas>
1

$$$$
2FDP_839
  MOE2015           3D

 83 85  0  0  1  0  0  0  0  0999 V2000
   25.0830    9.8760   20.2230 C   0  0  0  0  0  0  0  0  0  0  0  0
   25.7840   10.3680   19.1220 C   0  0  0  0  0  0  0  0  0  0  0  0
   24.3980   12.3420   19.1230 C   0  0  0  0  0  0  0  0  0  0  0  0
   16.7120   11.4130   24.0130 C   0  0  0  0  0  0  0  0  0  0  0  0
   17.1900   10.3840   24.8280 C   0  0  0  0  0  0  0  0  0  0  0  0
   15.0960    9.1970   24.5170 C   0  0  0  0  0  0  0  0  0  0  0  0
   14.6300   10.2250   23.7030 C   0  0  0  0  0  0  0  0  0  0  0  0
   15.4370   11.3320   23.4540 C   0  0  0  0  0  0  0  0  0  0  0  0
   22.3200   10.4340   24.2910 C   0  0  3  0  0  0  0  0  0  0  0  0
   23.2970   10.0360   21.9800 C   0  0  0  0  0  0  0  0  0  0  0  0
   19.3660   11.3430   25.3250 C   0  0  0  0  0  0  0  0  0  0  0  0
   22.8510   11.0880   23.0070 C   0  0  3  0  0  0  0  0  0  0  0  0
   24.0270   13.2090   23.4510 C   0  0  0  0  0  0  0  0  0  0  0  0
   29.3520   15.9450   20.6730 C   0  0  0  0  0  0  0  0  0  0  0  0
   29.6410    9.9560   21.9570 C   0  0  0  0  0  0  0  0  0  0  0  0
   29.2910   14.6230   19.9380 C   0  0  0  0  0  0  0  0  0  0  0  0
   29.8770   10.9280   20.8210 C   0  0  0  0  0  0  0  0  0  0  0  0
   30.4000   12.2810   21.3100 C   0  0  0  0  0  0  0  0  0  0  0  0
   28.4150   13.5960   20.6570 C   0  0  0  0  0  0  0  0  0  0  0  0
   28.9490   13.1830   23.0460 C   0  0  0  0  0  0  0  0  0  0  0  0
   26.4990   13.3090   23.3120 C   0  0  0  0  0  0  0  0  0  0  0  0
   25.3220   13.9130   23.7340 C   0  0  0  0  0  0  0  0  0  0  0  0
   25.3760   15.1500   24.3800 C   0  0  0  0  0  0  0  0  0  0  0  0
   27.7300   13.9200   23.5190 C   0  0  0  0  0  0  0  0  0  0  0  0
   27.7940   15.1480   24.1780 C   0  0  0  0  0  0  0  0  0  0  0  0
   26.6120   15.7630   24.6020 C   0  0  0  0  0  0  0  0  0  0  0  0
   13.4000   10.1530   23.1630 F   0  0  0  0  0  0  0  0  0  0  0  0
   16.3700    9.2810   25.0720 C   0  0  0  0  0  0  0  0  0  0  0  0
   18.4240   10.3980   25.4130 N   0  0  0  0  0  0  0  0  0  0  0  0
   19.2580   12.3780   24.6910 O   0  0  0  0  0  0  0  0  0  0  0  0
   20.6260   11.0580   26.0980 C   0  0  3  0  0  0  0  0  0  0  0  0
   20.5720   11.7980   27.4330 C   0  0  0  0  0  0  0  0  0  0  0  0
   21.8670   11.4760   25.3150 C   0  0  0  0  0  0  0  0  0  0  0  0
   23.3240    9.5620   24.8700 N   0  3  0  0  0  0  0  0  0  0  0  0
   24.0390   10.6100   20.7830 C   0  0  0  0  0  0  0  0  0  0  0  0
   23.6950   11.8450   20.2210 C   0  0  0  0  0  0  0  0  0  0  0  0
   25.4440   11.6030   18.5690 C   0  0  0  0  0  0  0  0  0  0  0  0
   24.0450   11.8780   23.3160 N   0  0  0  0  0  0  0  0  0  0  0  0
   23.0050   13.8710   23.3390 O   0  0  0  0  0  0  0  0  0  0  0  0
   29.6640   12.6850   23.8990 O   0  0  0  0  0  0  0  0  0  0  0  0
   29.2250   13.0340   21.7420 N   0  0  0  0  0  0  0  0  0  0  0  0
   25.3510    8.9190   20.6450 H   0  0  0  0  0  0  0  0  0  0  0  0
   26.5920    9.7910   18.6960 H   0  0  0  0  0  0  0  0  0  0  0  0
   24.1320   13.3000   18.7010 H   0  0  0  0  0  0  0  0  0  0  0  0
   17.3320   12.2750   23.8150 H   0  0  0  0  0  0  0  0  0  0  0  0
   14.4720    8.3380   24.7170 H   0  0  0  0  0  0  0  0  0  0  0  0
   15.0740   12.1310   22.8250 H   0  0  0  0  0  0  0  0  0  0  0  0
   21.4480    9.8390   24.0180 H   0  0  0  0  0  0  0  0  0  0  0  0
   22.4110    9.5160   21.6160 H   0  0  0  0  0  0  0  0  0  0  0  0
   23.9540    9.3260   22.4810 H   0  0  0  0  0  0  0  0  0  0  0  0
   22.0420   11.6970   22.6040 H   0  0  0  0  0  0  0  0  0  0  0  0
   29.9860   16.6390   20.1210 H   0  0  0  0  0  0  0  0  0  0  0  0
   29.7660   15.7880   21.6690 H   0  0  0  0  0  0  0  0  0  0  0  0
   28.3480   16.3600   20.7580 H   0  0  0  0  0  0  0  0  0  0  0  0
   29.2710    9.0120   21.5570 H   0  0  0  0  0  0  0  0  0  0  0  0
   28.9050   10.3730   22.6450 H   0  0  0  0  0  0  0  0  0  0  0  0
   30.5770    9.7830   22.4880 H   0  0  0  0  0  0  0  0  0  0  0  0
   30.3010   14.2230   19.8530 H   0  0  0  0  0  0  0  0  0  0  0  0
   28.8830   14.7950   18.9420 H   0  0  0  0  0  0  0  0  0  0  0  0
   28.9360   11.0860   20.2940 H   0  0  0  0  0  0  0  0  0  0  0  0
   30.6080   10.4960   20.1370 H   0  0  0  0  0  0  0  0  0  0  0  0
   30.9090   12.8050   20.5010 H   0  0  0  0  0  0  0  0  0  0  0  0
   31.0890   12.1420   22.1440 H   0  0  0  0  0  0  0  0  0  0  0  0
   28.1160   12.8080   19.9660 H   0  0  0  0  0  0  0  0  0  0  0  0
   27.5270   14.0790   21.0640 H   0  0  0  0  0  0  0  0  0  0  0  0
   26.4570   12.3510   22.8160 H   0  0  0  0  0  0  0  0  0  0  0  0
   24.4660   15.6310   24.7070 H   0  0  0  0  0  0  0  0  0  0  0  0
   28.7490   15.6200   24.3590 H   0  0  0  0  0  0  0  0  0  0  0  0
   26.6550   16.7180   25.1040 H   0  0  0  0  0  0  0  0  0  0  0  0
   16.7300    8.4800   25.7010 H   0  0  0  0  0  0  0  0  0  0  0  0
   18.6530    9.5960   25.9820 H   0  0  0  0  0  0  0  0  0  0  0  0
   20.6930    9.9840   26.2710 H   0  0  0  0  0  0  0  0  0  0  0  0
   20.5050   12.8710   27.2510 H   0  0  0  0  0  0  0  0  0  0  0  0
   21.4740   11.5820   28.0050 H   0  0  0  0  0  0  0  0  0  0  0  0
   19.6980   11.4700   27.9950 H   0  0  0  0  0  0  0  0  0  0  0  0
   21.6470   12.4050   24.7880 H   0  0  0  0  0  0  0  0  0  0  0  0
   22.6810   11.6430   26.0210 H   0  0  0  0  0  0  0  0  0  0  0  0
   24.1350   10.1060   25.1260 H   0  0  0  0  0  0  0  0  0  0  0  0
   23.5890    8.8590   24.1950 H   0  0  0  0  0  0  0  0  0  0  0  0
   22.9460    9.1130   25.6920 H   0  0  0  0  0  0  0  0  0  0  0  0
   22.8800   12.4170   20.6400 H   0  0  0  0  0  0  0  0  0  0  0  0
   25.9870   11.9850   17.7170 H   0  0  0  0  0  0  0  0  0  0  0  0
   24.9240   11.3950   23.4330 H   0  0  0  0  0  0  0  0  0  0  0  0
  1  2  1  0  0  0  0
  1 35  2  0  0  0  0
  1 42  1  0  0  0  0
  2 37  2  0  0  0  0
  2 43  1  0  0  0  0
  3 36  2  0  0  0  0
  3 37  1  0  0  0  0
  3 44  1  0  0  0  0
  4  5  1  0  0  0  0
  4  8  2  0  0  0  0
  4 45  1  0  0  0  0
  5 28  2  0  0  0  0
  5 29  1  0  0  0  0
  6  7  2  0  0  0  0
  6 28  1  0  0  0  0
  6 46  1  0  0  0  0
  7  8  1  0  0  0  0
  7 27  1  0  0  0  0
  8 47  1  0  0  0  0
  9 12  1  0  0  0  0
  9 33  1  0  0  0  0
  9 34  1  0  0  0  0
  9 48  1  0  0  0  0
 10 12  1  0  0  0  0
 10 35  1  0  0  0  0
 10 49  1  0  0  0  0
 10 50  1  0  0  0  0
 11 29  1  0  0  0  0
 11 30  2  0  0  0  0
 11 31  1  0  0  0  0
 12 38  1  0  0  0  0
 12 51  1  0  0  0  0
 13 22  1  0  0  0  0
 13 38  1  0  0  0  0
 13 39  2  0  0  0  0
 14 16  1  0  0  0  0
 14 52  1  0  0  0  0
 14 53  1  0  0  0  0
 14 54  1  0  0  0  0
 15 17  1  0  0  0  0
 15 55  1  0  0  0  0
 15 56  1  0  0  0  0
 15 57  1  0  0  0  0
 16 19  1  0  0  0  0
 16 58  1  0  0  0  0
 16 59  1  0  0  0  0
 17 18  1  0  0  0  0
 17 60  1  0  0  0  0
 17 61  1  0  0  0  0
 18 41  1  0  0  0  0
 18 62  1  0  0  0  0
 18 63  1  0  0  0  0
 19 41  1  0  0  0  0
 19 64  1  0  0  0  0
 19 65  1  0  0  0  0
 20 24  1  0  0  0  0
 20 40  2  0  0  0  0
 20 41  1  0  0  0  0
 21 22  2  0  0  0  0
 21 24  1  0  0  0  0
 21 66  1  0  0  0  0
 22 23  1  0  0  0  0
 23 26  2  0  0  0  0
 23 67  1  0  0  0  0
 24 25  2  0  0  0  0
 25 26  1  0  0  0  0
 25 68  1  0  0  0  0
 26 69  1  0  0  0  0
 28 70  1  0  0  0  0
 29 71  1  0  0  0  0
 31 32  1  0  0  0  0
 31 33  1  0  0  0  0
 31 72  1  0  0  0  0
 32 73  1  0  0  0  0
 32 74  1  0  0  0  0
 32 75  1  0  0  0  0
 33 76  1  0  0  0  0
 33 77  1  0  0  0  0
 34 78  1  0  0  0  0
 34 79  1  0  0  0  0
 34 80  1  0  0  0  0
 35 36  1  0  0  0  0
 36 81  1  0  0  0  0
 37 82  1  0  0  0  0
 38 83  1  0  0  0  0
M  CHG  1  34   1
M  END
>  <PARENT_CMPD_ID>
2FDP

>  <STANDARD_TYPE>
Ki

>  <RELATION>
=

>  <STANDARD_VALUE>
0.026000001

>  <STANDARD_UNITS>
uM

>  <COMPOUND_KEY>
7

>  <PUBMED_ID>
16451048

>  <JOURNAL>
J.Med.Chem.

>  <YEAR>
2006

>  <VOLUME>
49

>  <FIRST_PAGE>
839

>  <Company>
Sunesis

>  <Resolution>
2.5

>  <idx>
252

>  <Model>
Test

>  <target>
7.5850267

>  <des_pred_mlr>
7.3271899

>  <RF_Canvas>
7.0992098

>  <DNN_Canvas>
6.9745307

>  <pred_CoMFA>
6.3434

>  <pred_COMSIA>
6.7382998

>  <pred_abm5>
6.7131414

>  <pred_ff8>
7.6807961

>  <pred_gau6>
6.6502376

>  <CID>
BACE_252

>  <RF_canvas>
0

>  <DNN_canvas>
1

$$$$
4B05_41245
  MOE2015           3D

 49 53  0  0  1  0  0  0  0  0999 V2000
   22.0260   13.8200   23.3440 C   0  0  0  0  0  0  0  0  0  0  0  0
   21.9780   12.9280   22.2860 C   0  0  0  0  0  0  0  0  0  0  0  0
   22.1330   11.5740   22.5390 C   0  0  0  0  0  0  0  0  0  0  0  0
   22.3430   11.1550   23.8180 C   0  0  0  0  0  0  0  0  0  0  0  0
   22.3840   12.0260   24.8930 C   0  0  0  0  0  0  0  0  0  0  0  0
   22.2200   13.3770   24.6430 C   0  0  0  0  0  0  0  0  0  0  0  0
   22.5350   11.6260   26.1700 F   0  0  0  0  0  0  0  0  0  0  0  0
   22.4850    9.6980   23.7350 C   0  0  0  0  0  0  0  0  0  0  0  0
   22.3880    9.2670   22.5130 N   0  3  0  0  0  0  0  0  0  0  0  0
   22.1080   10.3950   21.5910 C   0  0  3  0  0  0  0  0  0  0  0  0
   23.2220   10.6330   20.5940 C   0  0  0  0  0  0  0  0  0  0  0  0
   22.9490   11.1100   19.3200 C   0  0  0  0  0  0  0  0  0  0  0  0
   23.9720   11.3240   18.4220 C   0  0  0  0  0  0  0  0  0  0  0  0
   25.2860   11.1030   18.7930 C   0  0  0  0  0  0  0  0  0  0  0  0
   25.5970   10.6490   20.0610 C   0  0  0  0  0  0  0  0  0  0  0  0
   24.5480   10.4240   20.9410 C   0  0  0  0  0  0  0  0  0  0  0  0
   26.9840   10.5000   20.4830 C   0  0  0  0  0  0  0  0  0  0  0  0
   27.9640   11.4030   20.1160 C   0  0  0  0  0  0  0  0  0  0  0  0
   29.2290   11.3780   20.5520 N   0  0  0  0  0  0  0  0  0  0  0  0
   29.5160   10.3790   21.3990 C   0  0  0  0  0  0  0  0  0  0  0  0
   28.6820    9.4160   21.8110 N   0  0  0  0  0  0  0  0  0  0  0  0
   27.4310    9.5140   21.3400 C   0  0  0  0  0  0  0  0  0  0  0  0
   20.7430   10.1460   20.9300 C   0  0  0  0  0  0  0  0  0  0  0  0
   19.8220   11.1750   20.9600 C   0  0  0  0  0  0  0  0  0  0  0  0
   18.5890   11.0330   20.3780 C   0  0  0  0  0  0  0  0  0  0  0  0
   18.2030    9.9230   19.7480 N   0  0  0  0  0  0  0  0  0  0  0  0
   19.0580    8.8990   19.7180 C   0  0  0  0  0  0  0  0  0  0  0  0
   20.3350    8.9700   20.2810 C   0  0  0  0  0  0  0  0  0  0  0  0
   18.5520    7.7070   18.9520 C   0  0  0  0  0  0  0  0  0  0  0  0
   18.1710    6.5820   19.6600 F   0  0  0  0  0  0  0  0  0  0  0  0
   19.3700    7.3290   17.9380 F   0  0  0  0  0  0  0  0  0  0  0  0
   22.7620    8.9350   24.8390 N   0  0  0  0  0  0  0  0  0  0  0  0
   21.9110   14.8770   23.1540 H   0  0  0  0  0  0  0  0  0  0  0  0
   21.8220   13.2820   21.2780 H   0  0  0  0  0  0  0  0  0  0  0  0
   22.2430   14.0850   25.4580 H   0  0  0  0  0  0  0  0  0  0  0  0
   21.9290   11.3150   19.0310 H   0  0  0  0  0  0  0  0  0  0  0  0
   23.7470   11.6660   17.4230 H   0  0  0  0  0  0  0  0  0  0  0  0
   26.0790   11.2870   18.0830 H   0  0  0  0  0  0  0  0  0  0  0  0
   24.7740   10.0720   21.9370 H   0  0  0  0  0  0  0  0  0  0  0  0
   27.6880   12.1870   19.4260 H   0  0  0  0  0  0  0  0  0  0  0  0
   30.5230   10.3480   21.7890 H   0  0  0  0  0  0  0  0  0  0  0  0
   26.7190    8.7650   21.6550 H   0  0  0  0  0  0  0  0  0  0  0  0
   20.0770   12.1040   21.4490 H   0  0  0  0  0  0  0  0  0  0  0  0
   17.8970   11.8600   20.4320 H   0  0  0  0  0  0  0  0  0  0  0  0
   21.0040    8.1250   20.2170 H   0  0  0  0  0  0  0  0  0  0  0  0
   17.6220    8.1270   18.5690 H   0  0  0  0  0  0  0  0  0  0  0  0
   22.9120    7.9410   24.7410 H   0  0  0  0  0  0  0  0  0  0  0  0
   22.8160    9.3670   25.7510 H   0  0  0  0  0  0  0  0  0  0  0  0
   22.4890    8.3020   22.2310 H   0  0  0  0  0  0  0  0  0  0  0  0
  1  2  1  0  0  0  0
  1  6  2  0  0  0  0
  1 33  1  0  0  0  0
  2  3  2  0  0  0  0
  2 34  1  0  0  0  0
  3  4  1  0  0  0  0
  3 10  1  0  0  0  0
  4  5  2  0  0  0  0
  4  8  1  0  0  0  0
  5  6  1  0  0  0  0
  5  7  1  0  0  0  0
  6 35  1  0  0  0  0
  8  9  2  0  0  0  0
  8 32  1  0  0  0  0
  9 10  1  0  0  0  0
  9 49  1  0  0  0  0
 10 11  1  0  0  0  0
 10 23  1  0  0  0  0
 11 12  1  0  0  0  0
 11 16  2  0  0  0  0
 12 13  2  0  0  0  0
 12 36  1  0  0  0  0
 13 14  1  0  0  0  0
 13 37  1  0  0  0  0
 14 15  2  0  0  0  0
 14 38  1  0  0  0  0
 15 16  1  0  0  0  0
 15 17  1  0  0  0  0
 16 39  1  0  0  0  0
 17 18  1  0  0  0  0
 17 22  2  0  0  0  0
 18 19  2  0  0  0  0
 18 40  1  0  0  0  0
 19 20  1  0  0  0  0
 20 21  2  0  0  0  0
 20 41  1  0  0  0  0
 21 22  1  0  0  0  0
 22 42  1  0  0  0  0
 23 24  1  0  0  0  0
 23 28  2  0  0  0  0
 24 25  2  0  0  0  0
 24 43  1  0  0  0  0
 25 26  1  0  0  0  0
 25 44  1  0  0  0  0
 26 27  2  0  0  0  0
 27 28  1  0  0  0  0
 27 29  1  0  0  0  0
 28 45  1  0  0  0  0
 29 30  1  0  0  0  0
 29 31  1  0  0  0  0
 29 46  1  0  0  0  0
 32 47  1  0  0  0  0
 32 48  1  0  0  0  0
M  CHG  1   9   1
M  END
>  <PARENT_CMPD_ID>
4B05

>  <STANDARD_TYPE>
Ki

>  <RELATION>
=

>  <STANDARD_VALUE>
0.0261

>  <STANDARD_UNITS>
uM

>  <COMPOUND_KEY>
AZD3839

>  <PUBMED_ID>
23048024

>  <JOURNAL>
J.Biol.Chem.

>  <YEAR>
2012

>  <VOLUME>
287

>  <FIRST_PAGE>
41245

>  <Company>
AstraZeneca

>  <Resolution>
1.8

>  <idx>
253

>  <Model>
Test

>  <target>
7.5833597

>  <des_pred_mlr>
6.9303002

>  <RF_Canvas>
6.9360733

>  <DNN_Canvas>
6.027595

>  <pred_CoMFA>
6.8778

>  <pred_COMSIA>
7.0170002

>  <pred_abm5>
6.6780572

>  <pred_ff8>
4.9265928

>  <pred_gau6>
6.6989555

>  <CID>
BACE_253

>  <RF_canvas>
0

>  <DNN_canvas>
1

$$$$
4FSE_9208
  MOE2015           3D

 49 51  0  0  0  0  0  0  0  0999 V2000
   22.7260   16.5380   26.6990 C   0  0  0  0  0  0  0  0  0  0  0  0
   21.8670   17.0840   27.0590 H   0  0  0  0  0  0  0  0  0  0  0  0
   24.0530   14.3890   26.3480 C   0  0  0  0  0  0  0  0  0  0  0  0
   24.1660   13.3210   26.4600 H   0  0  0  0  0  0  0  0  0  0  0  0
   23.8240   17.3190   25.9590 C   0  0  0  0  0  0  0  0  0  0  0  0
   23.7110   18.3860   25.8370 H   0  0  0  0  0  0  0  0  0  0  0  0
   25.1660   15.1230   25.6040 C   0  0  0  0  0  0  0  0  0  0  0  0
   26.0170   14.5730   25.2300 H   0  0  0  0  0  0  0  0  0  0  0  0
   22.0080   12.2210   20.6610 C   0  0  0  0  0  0  0  0  0  0  0  0
   21.0550   12.5940   21.0070 H   0  0  0  0  0  0  0  0  0  0  0  0
   23.8600   10.4250   20.7060 C   0  0  0  0  0  0  0  0  0  0  0  0
   24.2800    9.4970   21.0640 H   0  0  0  0  0  0  0  0  0  0  0  0
   22.7820   15.0200   26.9560 C   0  0  0  0  0  0  0  0  0  0  0  0
   21.3410   12.5510   27.2700 C   0  0  0  0  0  0  0  0  0  0  0  0
   22.5060   10.8870   21.1900 C   0  0  0  0  0  0  0  0  0  0  0  0
   24.1580   12.6050   19.1230 C   0  0  0  0  0  0  0  0  0  0  0  0
   25.0790   16.6350   25.3860 C   0  0  0  0  0  0  0  0  0  0  0  0
   22.7980   13.0490   19.6650 C   0  0  0  0  0  0  0  0  0  0  0  0
   24.6230   11.2800   19.7110 C   0  0  0  0  0  0  0  0  0  0  0  0
   21.9540   13.9040   27.5840 C   0  0  0  0  0  0  0  0  0  0  0  0
   20.5090   11.9340   28.3640 C   0  0  0  0  0  0  0  0  0  0  0  0
   21.5910   11.6280   26.0860 C   0  0  0  0  0  0  0  0  0  0  0  0
   22.3920    9.8160   24.5230 C   0  0  0  0  0  0  0  0  0  0  0  0
   19.7850   10.6020   28.4300 C   0  0  0  0  0  0  0  0  0  0  0  0
   26.8860   16.9810   23.6430 C   0  0  0  0  0  0  0  0  0  0  0  0
   21.5700   10.2660   22.1860 C   0  0  0  0  0  0  0  0  0  0  0  0
   21.3910   14.2880   28.8980 N   0  0  0  0  0  0  0  0  0  0  0  0
   22.3800   10.3780   25.8740 N   0  0  0  0  0  0  0  0  0  0  0  0
   24.9580   13.3800   18.1380 N   0  0  0  0  0  0  0  0  0  0  0  0
   25.8540   13.0320   17.8300 H   0  0  0  0  0  0  0  0  0  0  0  0
   24.6050   14.2550   17.7770 H   0  0  0  0  0  0  0  0  0  0  0  0
   23.0500    8.5840   24.0480 N   0  0  0  0  0  0  0  0  0  0  0  0
   23.5760    8.0110   24.6930 H   0  0  0  0  0  0  0  0  0  0  0  0
   22.9750    8.3130   23.0780 H   0  0  0  0  0  0  0  0  0  0  0  0
   21.6250   10.6480   23.5960 N   0  0  0  0  0  0  0  0  0  0  0  0
   21.1420   11.4720   23.9240 H   0  0  0  0  0  0  0  0  0  0  0  0
   21.0290   12.1390   24.8790 O   0  0  0  0  0  0  0  0  0  0  0  0
   26.0360   17.4550   24.7060 O   0  0  0  0  0  0  0  0  0  0  0  0
   20.4550   13.1670   29.6250 S   0  0  0  0  0  0  0  0  0  0  0  0
   22.0350   14.5630   19.1290 Cl  0  0  0  0  0  0  0  0  0  0  0  0
   26.1680   10.6470   19.1770 Cl  0  0  0  0  0  0  0  0  0  0  0  0
   18.7810   10.7140   28.0210 H   0  0  0  0  0  0  0  0  0  0  0  0
   19.7200   10.2750   29.4680 H   0  0  0  0  0  0  0  0  0  0  0  0
   20.3340    9.8610   27.8490 H   0  0  0  0  0  0  0  0  0  0  0  0
   27.5210   17.7960   23.2950 H   0  0  0  0  0  0  0  0  0  0  0  0
   26.2700   16.6220   22.8180 H   0  0  0  0  0  0  0  0  0  0  0  0
   27.5090   16.1670   24.0120 H   0  0  0  0  0  0  0  0  0  0  0  0
   21.7420    9.1900   22.1470 H   0  0  0  0  0  0  0  0  0  0  0  0
   20.5590   10.4850   21.8430 H   0  0  0  0  0  0  0  0  0  0  0  0
  1  2  1  0  0  0  0
  1  5  1  0  0  0  0
  1 13  2  0  0  0  0
  3  4  1  0  0  0  0
  3  7  2  0  0  0  0
  3 13  1  0  0  0  0
  5  6  1  0  0  0  0
  5 17  2  0  0  0  0
  7  8  1  0  0  0  0
  7 17  1  0  0  0  0
  9 10  1  0  0  0  0
  9 15  2  0  0  0  0
  9 18  1  0  0  0  0
 11 12  1  0  0  0  0
 11 15  1  0  0  0  0
 11 19  2  0  0  0  0
 13 20  1  0  0  0  0
 14 20  1  0  0  0  0
 14 21  2  0  0  0  0
 14 22  1  0  0  0  0
 15 26  1  0  0  0  0
 16 18  2  0  0  0  0
 16 19  1  0  0  0  0
 16 29  1  0  0  0  0
 17 38  1  0  0  0  0
 18 40  1  0  0  0  0
 19 41  1  0  0  0  0
 20 27  2  0  0  0  0
 21 24  1  0  0  0  0
 21 39  1  0  0  0  0
 22 28  1  0  0  0  0
 22 37  2  0  0  0  0
 23 28  2  0  0  0  0
 23 32  1  0  0  0  0
 23 35  1  0  0  0  0
 24 42  1  0  0  0  0
 24 43  1  0  0  0  0
 24 44  1  0  0  0  0
 25 38  1  0  0  0  0
 25 45  1  0  0  0  0
 25 46  1  0  0  0  0
 25 47  1  0  0  0  0
 26 35  1  0  0  0  0
 26 48  1  0  0  0  0
 26 49  1  0  0  0  0
 27 39  1  0  0  0  0
 29 30  1  0  0  0  0
 29 31  1  0  0  0  0
 32 33  1  0  0  0  0
 32 34  1  0  0  0  0
 35 36  1  0  0  0  0
M  END
>  <PARENT_CMPD_ID>
4FSE

>  <STANDARD_TYPE>
Ki

>  <RELATION>
=

>  <STANDARD_VALUE>
0.039999999

>  <STANDARD_UNITS>
uM

>  <COMPOUND_KEY>
17d

>  <PUBMED_ID>
23030502

>  <JOURNAL>
J.Med.Chem.

>  <YEAR>
2012

>  <VOLUME>
55

>  <FIRST_PAGE>
9208

>  <Company>
BMS

>  <Resolution>
2.6500001

>  <idx>
254

>  <Model>
Test

>  <target>
7.3979402

>  <des_pred_mlr>
6.1742201

>  <RF_Canvas>
6.5622945

>  <DNN_Canvas>
7.6010857

>  <pred_CoMFA>
5.0846

>  <pred_COMSIA>
5.0826001

>  <pred_abm5>
4.7268128

>  <pred_ff8>
5.2308974

>  <pred_gau6>
5.144516

>  <CID>
BACE_254

>  <RF_canvas>
0

>  <DNN_canvas>
0

$$$$
4HA5_9331
  MOE2015           3D

 39 41  0  0  1  0  0  0  0  0999 V2000
   28.2140   11.2210   18.7530 C   0  0  0  0  0  0  0  0  0  0  0  0
   28.9170   10.8050   19.9080 C   0  0  0  0  0  0  0  0  0  0  0  0
   28.1890   10.4460   21.0660 C   0  0  0  0  0  0  0  0  0  0  0  0
   26.7800   10.5000   21.0750 C   0  0  0  0  0  0  0  0  0  0  0  0
   26.0460   10.9130   19.9230 C   0  0  0  0  0  0  0  0  0  0  0  0
   26.7930   11.2770   18.7580 C   0  0  0  0  0  0  0  0  0  0  0  0
   24.5680   10.9680   19.9540 C   0  0  0  0  0  0  0  0  0  0  0  0
   23.7940   10.4500   21.0210 C   0  0  0  0  0  0  0  0  0  0  0  0
   22.4240   10.6300   20.8160 C   0  0  0  0  0  0  0  0  0  0  0  0
   22.1320   11.4240   19.3440 S   0  0  0  0  0  0  0  0  0  0  0  0
   23.7670   11.5380   18.9520 C   0  0  0  0  0  0  0  0  0  0  0  0
   21.2810   10.2040   21.7460 C   0  0  3  0  0  0  0  0  0  0  0  0
   20.5920   11.4690   22.3120 C   0  0  0  0  0  0  0  0  0  0  0  0
   21.4040   12.1330   23.4550 C   0  0  0  0  0  0  0  0  0  0  0  0
   22.2200   11.2870   24.2180 N   0  0  0  0  0  0  0  0  0  0  0  0
   22.2770    9.9110   24.0320 C   0  0  0  0  0  0  0  0  0  0  0  0
   21.8090    9.3740   22.8560 N   0  0  0  0  0  0  0  0  0  0  0  0
   22.7770    9.1020   24.9710 N   0  0  0  0  0  0  0  0  0  0  0  0
   20.2770    9.3420   20.9540 C   0  0  0  0  0  0  0  0  0  0  0  0
   23.0460   11.9630   25.2660 C   0  0  0  0  0  0  0  0  0  0  0  0
   21.3180   13.3440   23.6460 O   0  0  0  0  0  0  0  0  0  0  0  0
   28.8730   10.0190   22.2580 C   0  0  0  0  0  0  0  0  0  0  0  0
   29.3960    9.6700   23.2330 N   0  0  0  0  0  0  0  0  0  0  0  0
   28.7590   11.4980   17.8630 H   0  0  0  0  0  0  0  0  0  0  0  0
   29.9960   10.7620   19.9050 H   0  0  0  0  0  0  0  0  0  0  0  0
   26.2460   10.2230   21.9720 H   0  0  0  0  0  0  0  0  0  0  0  0
   26.2700   11.5990   17.8700 H   0  0  0  0  0  0  0  0  0  0  0  0
   24.2150    9.9710   21.8930 H   0  0  0  0  0  0  0  0  0  0  0  0
   24.1480   11.9900   18.0480 H   0  0  0  0  0  0  0  0  0  0  0  0
   19.6120   11.1890   22.6980 H   0  0  0  0  0  0  0  0  0  0  0  0
   20.4720   12.1910   21.5050 H   0  0  0  0  0  0  0  0  0  0  0  0
   22.8090    8.1050   24.8140 H   0  0  0  0  0  0  0  0  0  0  0  0
   23.1230    9.4880   25.8380 H   0  0  0  0  0  0  0  0  0  0  0  0
   19.8700    9.9250   20.1280 H   0  0  0  0  0  0  0  0  0  0  0  0
   19.4670    9.0300   21.6130 H   0  0  0  0  0  0  0  0  0  0  0  0
   20.7850    8.4610   20.5610 H   0  0  0  0  0  0  0  0  0  0  0  0
   22.8530   13.0360   25.2450 H   0  0  0  0  0  0  0  0  0  0  0  0
   24.1020   11.7800   25.0700 H   0  0  0  0  0  0  0  0  0  0  0  0
   22.7840   11.5660   26.2470 H   0  0  0  0  0  0  0  0  0  0  0  0
  1  2  1  0  0  0  0
  1  6  2  0  0  0  0
  1 24  1  0  0  0  0
  2  3  2  0  0  0  0
  2 25  1  0  0  0  0
  3  4  1  0  0  0  0
  3 22  1  0  0  0  0
  4  5  2  0  0  0  0
  4 26  1  0  0  0  0
  5  6  1  0  0  0  0
  5  7  1  0  0  0  0
  6 27  1  0  0  0  0
  7  8  1  0  0  0  0
  7 11  2  0  0  0  0
  8  9  2  0  0  0  0
  8 28  1  0  0  0  0
  9 10  1  0  0  0  0
  9 12  1  0  0  0  0
 10 11  1  0  0  0  0
 11 29  1  0  0  0  0
 12 13  1  0  0  0  0
 12 17  1  0  0  0  0
 12 19  1  0  0  0  0
 13 14  1  0  0  0  0
 13 30  1  0  0  0  0
 13 31  1  0  0  0  0
 14 15  1  0  0  0  0
 14 21  2  0  0  0  0
 15 16  1  0  0  0  0
 15 20  1  0  0  0  0
 16 17  2  0  0  0  0
 16 18  1  0  0  0  0
 18 32  1  0  0  0  0
 18 33  1  0  0  0  0
 19 34  1  0  0  0  0
 19 35  1  0  0  0  0
 19 36  1  0  0  0  0
 20 37  1  0  0  0  0
 20 38  1  0  0  0  0
 20 39  1  0  0  0  0
 22 23  3  0  0  0  0
M  END
>  <PARENT_CMPD_ID>
4HA5

>  <STANDARD_TYPE>
Ki

>  <RELATION>
=

>  <STANDARD_VALUE>
0.056000002

>  <STANDARD_UNITS>
uM

>  <COMPOUND_KEY>
7

>  <PUBMED_ID>
22989333

>  <JOURNAL>
J.Med.Chem.

>  <YEAR>
2012

>  <VOLUME>
55

>  <FIRST_PAGE>
9331

>  <Company>
Merck

>  <Resolution>
1.83

>  <idx>
255

>  <Model>
Test

>  <target>
7.251812

>  <des_pred_mlr>
5.9795799

>  <RF_Canvas>
5.293057

>  <DNN_Canvas>
6.5568604

>  <pred_CoMFA>
5.6034999

>  <pred_COMSIA>
4.9994001

>  <pred_abm5>
5.5838099

>  <pred_ff8>
5.9097776

>  <pred_gau6>
5.5010581

>  <CID>
BACE_255

>  <RF_canvas>
0

>  <DNN_canvas>
0

$$$$
4DJX_2444
  MOE2015           3D

 42 45  0  0  1  0  0  0  0  0999 V2000
   22.4950   11.8400   22.6360 C   0  0  0  0  0  0  0  0  0  0  0  0
   22.3210   10.6720   21.6320 C   0  0  3  0  0  0  0  0  0  0  0  0
   22.5460    9.4640   22.5000 N   0  0  0  0  0  0  0  0  0  0  0  0
   22.6020    8.5070   22.1820 H   0  0  0  0  0  0  0  0  0  0  0  0
   22.6610    9.8860   23.7840 C   0  0  0  0  0  0  0  0  0  0  0  0
   22.6940   11.2890   23.8790 N   0  0  0  0  0  0  0  0  0  0  0  0
   22.8100    9.1200   24.8580 N   0  3  0  0  0  0  0  0  0  0  0  0
   22.8860    9.5420   25.7730 H   0  0  0  0  0  0  0  0  0  0  0  0
   22.8470    8.1150   24.7610 H   0  0  0  0  0  0  0  0  0  0  0  0
   22.9000   12.0730   25.0950 C   0  0  0  0  0  0  0  0  0  0  0  0
   22.8740   13.1350   24.8510 H   0  0  0  0  0  0  0  0  0  0  0  0
   23.8680   11.8230   25.5290 H   0  0  0  0  0  0  0  0  0  0  0  0
   22.1110   11.8450   25.8120 H   0  0  0  0  0  0  0  0  0  0  0  0
   22.4800   13.0320   22.3850 O   0  0  0  0  0  0  0  0  0  0  0  0
   23.4030   10.7510   20.5560 C   0  0  0  0  0  0  0  0  0  0  0  0
   20.8610   10.7510   21.1690 C   0  0  0  0  0  0  0  0  0  0  0  0
   21.0810   11.7000   20.6800 H   0  0  0  0  0  0  0  0  0  0  0  0
   23.0690   10.9660   19.2210 C   0  0  0  0  0  0  0  0  0  0  0  0
   22.0300   11.0120   18.9290 H   0  0  0  0  0  0  0  0  0  0  0  0
   24.0600   11.1210   18.2660 C   0  0  0  0  0  0  0  0  0  0  0  0
   23.7930   11.2680   17.2300 H   0  0  0  0  0  0  0  0  0  0  0  0
   25.3930   11.0880   18.6390 C   0  0  0  0  0  0  0  0  0  0  0  0
   26.1600   11.2270   17.8920 H   0  0  0  0  0  0  0  0  0  0  0  0
   25.7570   10.8760   19.9750 C   0  0  0  0  0  0  0  0  0  0  0  0
   24.7490   10.6820   20.9190 C   0  0  0  0  0  0  0  0  0  0  0  0
   25.0140   10.4750   21.9460 H   0  0  0  0  0  0  0  0  0  0  0  0
   27.1890   10.8820   20.3960 C   0  0  0  0  0  0  0  0  0  0  0  0
   28.1240   11.7400   19.8310 C   0  0  0  0  0  0  0  0  0  0  0  0
   27.8130   12.3430   18.9910 H   0  0  0  0  0  0  0  0  0  0  0  0
   29.7730   11.1200   21.3060 C   0  0  0  0  0  0  0  0  0  0  0  0
   30.7760   11.2260   21.6910 H   0  0  0  0  0  0  0  0  0  0  0  0
   27.6170   10.0710   21.4510 C   0  0  0  0  0  0  0  0  0  0  0  0
   26.9520    9.3500   21.9030 H   0  0  0  0  0  0  0  0  0  0  0  0
   29.3860   11.8670   20.2610 N   0  0  0  0  0  0  0  0  0  0  0  0
   20.1520    9.4750   20.8170 C   0  0  0  0  0  0  0  0  0  0  0  0
   20.6530    8.5170   20.9530 H   0  0  0  0  0  0  0  0  0  0  0  0
   19.5170    9.4300   19.9320 H   0  0  0  0  0  0  0  0  0  0  0  0
   19.7210   10.2710   22.0090 C   0  0  0  0  0  0  0  0  0  0  0  0
   18.7710   10.8040   21.9930 H   0  0  0  0  0  0  0  0  0  0  0  0
   19.9070    9.8910   23.0140 H   0  0  0  0  0  0  0  0  0  0  0  0
   28.9110   10.2190   21.8970 C   0  0  0  0  0  0  0  0  0  0  0  0
   29.4670    9.2400   23.2220 Cl  0  0  0  0  0  0  0  0  0  0  0  0
  1  2  1  0  0  0  0
  1  6  1  0  0  0  0
  1 14  2  0  0  0  0
  2  3  1  0  0  0  0
  2 15  1  0  0  0  0
  2 16  1  0  0  0  0
  3  4  1  0  0  0  0
  3  5  1  0  0  0  0
  5  6  1  0  0  0  0
  5  7  2  0  0  0  0
  6 10  1  0  0  0  0
  7  8  1  0  0  0  0
  7  9  1  0  0  0  0
 10 11  1  0  0  0  0
 10 12  1  0  0  0  0
 10 13  1  0  0  0  0
 15 18  1  0  0  0  0
 15 25  2  0  0  0  0
 16 17  1  0  0  0  0
 16 35  1  0  0  0  0
 16 38  1  0  0  0  0
 18 19  1  0  0  0  0
 18 20  2  0  0  0  0
 20 21  1  0  0  0  0
 20 22  1  0  0  0  0
 22 23  1  0  0  0  0
 22 24  2  0  0  0  0
 24 25  1  0  0  0  0
 24 27  1  0  0  0  0
 25 26  1  0  0  0  0
 27 28  1  0  0  0  0
 27 32  2  0  0  0  0
 28 29  1  0  0  0  0
 28 34  2  0  0  0  0
 30 31  1  0  0  0  0
 30 34  1  0  0  0  0
 30 41  2  0  0  0  0
 32 33  1  0  0  0  0
 32 41  1  0  0  0  0
 35 36  1  0  0  0  0
 35 37  1  0  0  0  0
 35 38  1  0  0  0  0
 38 39  1  0  0  0  0
 38 40  1  0  0  0  0
 41 42  1  0  0  0  0
M  CHG  1   7   1
M  END
>  <PARENT_CMPD_ID>
4DJX

>  <STANDARD_TYPE>
Ki

>  <RELATION>
=

>  <STANDARD_VALUE>
0.059

>  <STANDARD_UNITS>
uM

>  <COMPOUND_KEY>
17h

>  <PUBMED_ID>
22390835

>  <JOURNAL>
Bioorg.Med.Chem.Lett.

>  <YEAR>
2012

>  <VOLUME>
22

>  <FIRST_PAGE>
2444

>  <Company>
Merck

>  <Resolution>
1.5

>  <idx>
256

>  <Model>
Test

>  <target>
7.2291479

>  <des_pred_mlr>
5.6865301

>  <RF_Canvas>
5.3096561

>  <DNN_Canvas>
5.6912951

>  <pred_CoMFA>
5.4991999

>  <pred_COMSIA>
5.6483998

>  <pred_abm5>
6.5960913

>  <pred_ff8>
5.0996685

>  <pred_gau6>
5.6800737

>  <CID>
BACE_256

>  <RF_canvas>
0

>  <DNN_canvas>
0

$$$$
4H3J_9331
  MOE2015           3D

 52 56  0  0  1  0  0  0  0  0999 V2000
   21.4210   12.1710   23.1980 C   0  0  0  0  0  0  0  0  0  0  0  0
   22.1200   11.3060   24.0150 N   0  0  0  0  0  0  0  0  0  0  0  0
   22.1350    9.9400   23.8430 C   0  0  0  0  0  0  0  0  0  0  0  0
   21.6280    9.3720   22.6850 N   0  0  0  0  0  0  0  0  0  0  0  0
   22.6300    9.1680   24.7840 N   0  0  0  0  0  0  0  0  0  0  0  0
   22.8770   11.9480   25.1340 C   0  0  0  0  0  0  0  0  0  0  0  0
   21.3790   13.3800   23.3930 O   0  0  0  0  0  0  0  0  0  0  0  0
   20.6620   11.5260   22.0040 C   0  0  3  0  0  0  0  0  0  0  0  0
   21.2700   10.1700   21.5090 C   0  0  3  0  0  0  0  0  0  0  0  0
   20.1070    9.5050   20.7780 C   0  0  0  0  0  0  0  0  0  0  0  0
   18.9200   10.1170   21.3980 N   0  0  0  0  0  0  0  0  0  0  0  0
   19.2240   11.1950   22.3520 C   0  0  0  0  0  0  0  0  0  0  0  0
   22.4900   10.4800   20.7230 C   0  0  0  0  0  0  0  0  0  0  0  0
   22.5830   11.1010   19.4320 C   0  0  0  0  0  0  0  0  0  0  0  0
   23.9100   11.2650   18.9920 C   0  0  0  0  0  0  0  0  0  0  0  0
   24.8700   10.7760   19.9070 C   0  0  0  0  0  0  0  0  0  0  0  0
   24.0610   10.1540   21.2580 S   0  0  0  0  0  0  0  0  0  0  0  0
   26.3210   10.8430   19.7930 C   0  0  0  0  0  0  0  0  0  0  0  0
   27.0680   10.4510   20.9160 C   0  0  0  0  0  0  0  0  0  0  0  0
   28.4640   10.5310   20.9220 C   0  0  0  0  0  0  0  0  0  0  0  0
   29.1330   11.0220   19.7790 C   0  0  0  0  0  0  0  0  0  0  0  0
   28.4090   11.4330   18.6440 C   0  0  0  0  0  0  0  0  0  0  0  0
   26.9940   11.3490   18.6590 C   0  0  0  0  0  0  0  0  0  0  0  0
   29.1560   10.0990   22.1020 C   0  0  0  0  0  0  0  0  0  0  0  0
   29.6890    9.7410   23.0650 N   0  0  0  0  0  0  0  0  0  0  0  0
   30.4530   11.1150   19.7420 F   0  0  0  0  0  0  0  0  0  0  0  0
   17.6050    9.7140   21.1140 C   0  0  0  0  0  0  0  0  0  0  0  0
   17.3270    8.7380   20.1080 C   0  0  0  0  0  0  0  0  0  0  0  0
   16.0000    8.3370   19.8280 C   0  0  0  0  0  0  0  0  0  0  0  0
   14.9310    8.9010   20.5460 C   0  0  0  0  0  0  0  0  0  0  0  0
   15.1780    9.8680   21.5470 C   0  0  0  0  0  0  0  0  0  0  0  0
   16.5050   10.2680   21.8250 C   0  0  0  0  0  0  0  0  0  0  0  0
   22.6400    8.1650   24.6620 H   0  0  0  0  0  0  0  0  0  0  0  0
   23.0010    9.5770   25.6300 H   0  0  0  0  0  0  0  0  0  0  0  0
   22.7360   13.0280   25.0950 H   0  0  0  0  0  0  0  0  0  0  0  0
   23.9370   11.7160   25.0350 H   0  0  0  0  0  0  0  0  0  0  0  0
   22.5090   11.5680   26.0870 H   0  0  0  0  0  0  0  0  0  0  0  0
   20.7440   12.2880   21.2290 H   0  0  0  0  0  0  0  0  0  0  0  0
   20.1150    8.4260   20.9320 H   0  0  0  0  0  0  0  0  0  0  0  0
   20.1440    9.7200   19.7100 H   0  0  0  0  0  0  0  0  0  0  0  0
   18.5710   12.0550   22.2000 H   0  0  0  0  0  0  0  0  0  0  0  0
   19.1350   10.8490   23.3820 H   0  0  0  0  0  0  0  0  0  0  0  0
   21.7230   11.4110   18.8570 H   0  0  0  0  0  0  0  0  0  0  0  0
   24.1690   11.7200   18.0470 H   0  0  0  0  0  0  0  0  0  0  0  0
   26.5550   10.0810   21.7910 H   0  0  0  0  0  0  0  0  0  0  0  0
   28.9250   11.8080   17.7720 H   0  0  0  0  0  0  0  0  0  0  0  0
   26.4280   11.6740   17.7990 H   0  0  0  0  0  0  0  0  0  0  0  0
   18.1430    8.3000   19.5530 H   0  0  0  0  0  0  0  0  0  0  0  0
   15.8080    7.5990   19.0640 H   0  0  0  0  0  0  0  0  0  0  0  0
   13.9180    8.5940   20.3320 H   0  0  0  0  0  0  0  0  0  0  0  0
   14.3550   10.3000   22.0980 H   0  0  0  0  0  0  0  0  0  0  0  0
   16.6870   11.0070   22.5910 H   0  0  0  0  0  0  0  0  0  0  0  0
  1  2  1  0  0  0  0
  1  7  2  0  0  0  0
  1  8  1  0  0  0  0
  2  3  1  0  0  0  0
  2  6  1  0  0  0  0
  3  4  2  0  0  0  0
  3  5  1  0  0  0  0
  4  9  1  0  0  0  0
  5 33  1  0  0  0  0
  5 34  1  0  0  0  0
  6 35  1  0  0  0  0
  6 36  1  0  0  0  0
  6 37  1  0  0  0  0
  8  9  1  0  0  0  0
  8 12  1  0  0  0  0
  8 38  1  0  0  0  0
  9 10  1  0  0  0  0
  9 13  1  0  0  0  0
 10 11  1  0  0  0  0
 10 39  1  0  0  0  0
 10 40  1  0  0  0  0
 11 12  1  0  0  0  0
 11 27  1  0  0  0  0
 12 41  1  0  0  0  0
 12 42  1  0  0  0  0
 13 14  2  0  0  0  0
 13 17  1  0  0  0  0
 14 15  1  0  0  0  0
 14 43  1  0  0  0  0
 15 16  2  0  0  0  0
 15 44  1  0  0  0  0
 16 17  1  0  0  0  0
 16 18  1  0  0  0  0
 18 19  1  0  0  0  0
 18 23  2  0  0  0  0
 19 20  2  0  0  0  0
 19 45  1  0  0  0  0
 20 21  1  0  0  0  0
 20 24  1  0  0  0  0
 21 22  2  0  0  0  0
 21 26  1  0  0  0  0
 22 23  1  0  0  0  0
 22 46  1  0  0  0  0
 23 47  1  0  0  0  0
 24 25  3  0  0  0  0
 27 28  1  0  0  0  0
 27 32  2  0  0  0  0
 28 29  2  0  0  0  0
 28 48  1  0  0  0  0
 29 30  1  0  0  0  0
 29 49  1  0  0  0  0
 30 31  2  0  0  0  0
 30 50  1  0  0  0  0
 31 32  1  0  0  0  0
 31 51  1  0  0  0  0
 32 52  1  0  0  0  0
M  END
>  <PARENT_CMPD_ID>
4H3J

>  <STANDARD_TYPE>
Ki

>  <RELATION>
=

>  <STANDARD_VALUE>
0.090000004

>  <STANDARD_UNITS>
uM

>  <COMPOUND_KEY>
31

>  <PUBMED_ID>
22989333

>  <JOURNAL>
J.Med.Chem.

>  <YEAR>
2012

>  <VOLUME>
55

>  <FIRST_PAGE>
9331

>  <Company>
Merck

>  <Resolution>
1.6

>  <idx>
257

>  <Model>
Test

>  <target>
7.0457573

>  <des_pred_mlr>
6.7390399

>  <RF_Canvas>
7.2310181

>  <DNN_Canvas>
7.6246028

>  <pred_CoMFA>
6.9092999

>  <pred_COMSIA>
5.8895001

>  <pred_abm5>
6.8414822

>  <pred_ff8>
5.6076956

>  <pred_gau6>
6.4880857

>  <CID>
BACE_257

>  <RF_canvas>
1

>  <DNN_canvas>
1

$$$$
4DJV_2444
  MOE2015           3D

 50 53  0  0  1  0  0  0  0  0999 V2000
   22.7210   12.9540   22.2220 O   0  0  0  0  0  0  0  0  0  0  0  0
   22.6410   11.7720   22.4950 C   0  0  0  0  0  0  0  0  0  0  0  0
   22.4010   10.5930   21.4760 C   0  0  3  0  0  0  0  0  0  0  0  0
   22.5770    9.3950   22.3610 N   0  0  0  0  0  0  0  0  0  0  0  0
   22.5770    8.4340   22.0510 H   0  0  0  0  0  0  0  0  0  0  0  0
   22.7350    9.8020   23.6310 C   0  0  0  0  0  0  0  0  0  0  0  0
   22.8180   11.2190   23.7420 N   0  0  0  0  0  0  0  0  0  0  0  0
   22.8700    8.9970   24.6840 N   0  3  0  0  0  0  0  0  0  0  0  0
   22.9850    9.3890   25.6080 H   0  0  0  0  0  0  0  0  0  0  0  0
   22.8570    7.9950   24.5590 H   0  0  0  0  0  0  0  0  0  0  0  0
   23.0540   12.0060   24.9590 C   0  0  0  0  0  0  0  0  0  0  0  0
   23.0620   13.0670   24.7100 H   0  0  0  0  0  0  0  0  0  0  0  0
   24.0150   11.7270   25.3910 H   0  0  0  0  0  0  0  0  0  0  0  0
   22.2610   11.8080   25.6800 H   0  0  0  0  0  0  0  0  0  0  0  0
   20.9660   10.6350   20.9150 C   0  0  0  0  0  0  0  0  0  0  0  0
   20.2140    9.4690   20.8080 C   0  0  0  0  0  0  0  0  0  0  0  0
   20.6470    8.5270   21.1100 H   0  0  0  0  0  0  0  0  0  0  0  0
   18.9100    9.5000   20.3170 C   0  0  0  0  0  0  0  0  0  0  0  0
   18.3430    8.5840   20.2380 H   0  0  0  0  0  0  0  0  0  0  0  0
   18.3430   10.6930   19.9330 C   0  0  0  0  0  0  0  0  0  0  0  0
   17.3300   10.7160   19.5600 H   0  0  0  0  0  0  0  0  0  0  0  0
   19.0750   11.8620   20.0270 C   0  0  0  0  0  0  0  0  0  0  0  0
   18.6320   12.8000   19.7260 H   0  0  0  0  0  0  0  0  0  0  0  0
   20.3820   11.8340   20.5090 C   0  0  0  0  0  0  0  0  0  0  0  0
   20.9490   12.7510   20.5690 H   0  0  0  0  0  0  0  0  0  0  0  0
   23.5080   10.6610   20.4060 C   0  0  0  0  0  0  0  0  0  0  0  0
   23.2120   10.9550   19.0770 C   0  0  0  0  0  0  0  0  0  0  0  0
   22.1810   11.0290   18.7630 H   0  0  0  0  0  0  0  0  0  0  0  0
   24.2260   11.1540   18.1520 C   0  0  0  0  0  0  0  0  0  0  0  0
   23.9830   11.3910   17.1270 H   0  0  0  0  0  0  0  0  0  0  0  0
   25.5480   11.0490   18.5420 C   0  0  0  0  0  0  0  0  0  0  0  0
   26.3340   11.2190   17.8210 H   0  0  0  0  0  0  0  0  0  0  0  0
   25.8760   10.7240   19.8620 C   0  0  0  0  0  0  0  0  0  0  0  0
   24.8430   10.5260   20.7860 C   0  0  0  0  0  0  0  0  0  0  0  0
   25.0830   10.2650   21.8060 H   0  0  0  0  0  0  0  0  0  0  0  0
   29.8660   10.5800   21.4300 C   0  0  0  0  0  0  0  0  0  0  0  0
   30.8450   10.5930   21.8870 H   0  0  0  0  0  0  0  0  0  0  0  0
   27.6470    9.6510   21.2600 C   0  0  0  0  0  0  0  0  0  0  0  0
   26.9240    8.9100   21.5670 H   0  0  0  0  0  0  0  0  0  0  0  0
   27.2930   10.6000   20.2990 C   0  0  0  0  0  0  0  0  0  0  0  0
   28.2690   11.5060   19.8780 C   0  0  0  0  0  0  0  0  0  0  0  0
   28.0330   12.2240   19.1060 H   0  0  0  0  0  0  0  0  0  0  0  0
   29.5410   11.4960   20.4400 C   0  0  0  0  0  0  0  0  0  0  0  0
   30.2810   12.2070   20.1030 H   0  0  0  0  0  0  0  0  0  0  0  0
   28.9160    9.6450   21.8270 C   0  0  0  0  0  0  0  0  0  0  0  0
   29.0880    8.6830   22.7930 O   0  0  0  0  0  0  0  0  0  0  0  0
   30.2970    8.7180   23.5680 C   0  0  0  0  0  0  0  0  0  0  0  0
   30.2910    7.9000   24.2880 H   0  0  0  0  0  0  0  0  0  0  0  0
   30.3610    9.6680   24.0980 H   0  0  0  0  0  0  0  0  0  0  0  0
   31.1560    8.6130   22.9060 H   0  0  0  0  0  0  0  0  0  0  0  0
  1  2  2  0  0  0  0
  2  3  1  0  0  0  0
  2  7  1  0  0  0  0
  3  4  1  0  0  0  0
  3 15  1  0  0  0  0
  3 26  1  0  0  0  0
  4  5  1  0  0  0  0
  4  6  1  0  0  0  0
  6  7  1  0  0  0  0
  6  8  2  0  0  0  0
  7 11  1  0  0  0  0
  8  9  1  0  0  0  0
  8 10  1  0  0  0  0
 11 12  1  0  0  0  0
 11 13  1  0  0  0  0
 11 14  1  0  0  0  0
 15 16  1  0  0  0  0
 15 24  2  0  0  0  0
 16 17  1  0  0  0  0
 16 18  2  0  0  0  0
 18 19  1  0  0  0  0
 18 20  1  0  0  0  0
 20 21  1  0  0  0  0
 20 22  2  0  0  0  0
 22 23  1  0  0  0  0
 22 24  1  0  0  0  0
 24 25  1  0  0  0  0
 26 27  1  0  0  0  0
 26 34  2  0  0  0  0
 27 28  1  0  0  0  0
 27 29  2  0  0  0  0
 29 30  1  0  0  0  0
 29 31  1  0  0  0  0
 31 32  1  0  0  0  0
 31 33  2  0  0  0  0
 33 34  1  0  0  0  0
 33 40  1  0  0  0  0
 34 35  1  0  0  0  0
 36 37  1  0  0  0  0
 36 43  2  0  0  0  0
 36 45  1  0  0  0  0
 38 39  1  0  0  0  0
 38 40  1  0  0  0  0
 38 45  2  0  0  0  0
 40 41  2  0  0  0  0
 41 42  1  0  0  0  0
 41 43  1  0  0  0  0
 43 44  1  0  0  0  0
 45 46  1  0  0  0  0
 46 47  1  0  0  0  0
 47 48  1  0  0  0  0
 47 49  1  0  0  0  0
 47 50  1  0  0  0  0
M  CHG  1   8   1
M  END
>  <PARENT_CMPD_ID>
4DJV

>  <STANDARD_TYPE>
Ki

>  <RELATION>
=

>  <STANDARD_VALUE>
0.19

>  <STANDARD_UNITS>
uM

>  <COMPOUND_KEY>
4b

>  <PUBMED_ID>
22390835

>  <JOURNAL>
Bioorg.Med.Chem.Lett.

>  <YEAR>
2012

>  <VOLUME>
22

>  <FIRST_PAGE>
2444

>  <Company>
Merck

>  <Resolution>
1.73

>  <idx>
258

>  <Model>
Test

>  <target>
6.7212462

>  <des_pred_mlr>
6.0488601

>  <RF_Canvas>
6.7156916

>  <DNN_Canvas>
6.341959

>  <pred_CoMFA>
6.3318

>  <pred_COMSIA>
7.3347998

>  <pred_abm5>
7.5393748

>  <pred_ff8>
5.1239643

>  <pred_gau6>
6.8767858

>  <CID>
BACE_258

>  <RF_canvas>
0

>  <DNN_canvas>
0

$$$$
4FS4_897
  MOE2015           3D

 45 47  0  0  1  0  0  0  0  0999 V2000
   30.2950    8.6100   23.6160 C   0  0  0  0  0  0  0  0  0  0  0  0
   29.1250    8.5890   22.7840 O   0  0  0  0  0  0  0  0  0  0  0  0
   28.9220    9.6470   21.9370 C   0  0  0  0  0  0  0  0  0  0  0  0
   29.8440   10.6700   21.7380 C   0  0  0  0  0  0  0  0  0  0  0  0
   29.5100   11.7310   20.9140 C   0  0  0  0  0  0  0  0  0  0  0  0
   28.2500   11.8000   20.3370 C   0  0  0  0  0  0  0  0  0  0  0  0
   27.3010   10.7980   20.5550 C   0  0  0  0  0  0  0  0  0  0  0  0
   27.6660    9.6980   21.3380 C   0  0  0  0  0  0  0  0  0  0  0  0
   25.9130   10.9280   20.0290 C   0  0  0  0  0  0  0  0  0  0  0  0
   25.6740   11.5260   18.7870 C   0  0  0  0  0  0  0  0  0  0  0  0
   24.3830   11.7110   18.3270 C   0  0  0  0  0  0  0  0  0  0  0  0
   23.3070   11.2940   19.0950 C   0  0  0  0  0  0  0  0  0  0  0  0
   23.5080   10.6800   20.3300 C   0  0  0  0  0  0  0  0  0  0  0  0
   22.2670   10.2100   21.1130 C   0  0  3  0  0  0  0  0  0  0  0  0
   21.3820    9.3040   20.2050 C   0  0  0  0  0  0  0  0  0  0  0  0
   21.4190   11.4330   21.5840 C   0  0  0  0  0  0  0  0  0  0  0  0
   22.0710   12.0960   22.7900 C   0  0  0  0  0  0  0  0  0  0  0  0
   22.1180   13.3160   22.8780 O   0  0  0  0  0  0  0  0  0  0  0  0
   22.6770   11.2830   23.7220 N   0  0  0  0  0  0  0  0  0  0  0  0
   23.2510   11.9060   24.9200 C   0  0  0  0  0  0  0  0  0  0  0  0
   22.7180    9.8590   23.5010 C   0  0  0  0  0  0  0  0  0  0  0  0
   22.9230    9.0350   24.5300 N   0  0  0  0  0  0  0  0  0  0  0  0
   22.5380    9.3310   22.2910 N   0  0  0  0  0  0  0  0  0  0  0  0
   24.8170   10.5020   20.7980 C   0  0  0  0  0  0  0  0  0  0  0  0
   30.3200    7.7100   24.2300 H   0  0  0  0  0  0  0  0  0  0  0  0
   30.2670    9.4890   24.2600 H   0  0  0  0  0  0  0  0  0  0  0  0
   31.1860    8.6470   22.9890 H   0  0  0  0  0  0  0  0  0  0  0  0
   30.8090   10.6370   22.2210 H   0  0  0  0  0  0  0  0  0  0  0  0
   30.2340   12.5090   20.7190 H   0  0  0  0  0  0  0  0  0  0  0  0
   27.9990   12.6420   19.7090 H   0  0  0  0  0  0  0  0  0  0  0  0
   26.9700    8.8840   21.4790 H   0  0  0  0  0  0  0  0  0  0  0  0
   26.5080   11.8470   18.1800 H   0  0  0  0  0  0  0  0  0  0  0  0
   24.2130   12.1800   17.3690 H   0  0  0  0  0  0  0  0  0  0  0  0
   22.3010   11.4470   18.7320 H   0  0  0  0  0  0  0  0  0  0  0  0
   21.1160    9.8470   19.2980 H   0  0  0  0  0  0  0  0  0  0  0  0
   20.4750    9.0270   20.7420 H   0  0  0  0  0  0  0  0  0  0  0  0
   21.9360    8.4030   19.9400 H   0  0  0  0  0  0  0  0  0  0  0  0
   20.4200   11.0940   21.8570 H   0  0  0  0  0  0  0  0  0  0  0  0
   21.3480   12.1560   20.7710 H   0  0  0  0  0  0  0  0  0  0  0  0
   23.1050   12.9850   24.8740 H   0  0  0  0  0  0  0  0  0  0  0  0
   24.3170   11.6850   24.9690 H   0  0  0  0  0  0  0  0  0  0  0  0
   22.7570   11.5100   25.8070 H   0  0  0  0  0  0  0  0  0  0  0  0
   22.9390    8.0360   24.3820 H   0  0  0  0  0  0  0  0  0  0  0  0
   23.0620    9.4100   25.4570 H   0  0  0  0  0  0  0  0  0  0  0  0
   24.9840   10.0340   21.7570 H   0  0  0  0  0  0  0  0  0  0  0  0
  1  2  1  0  0  0  0
  1 25  1  0  0  0  0
  1 26  1  0  0  0  0
  1 27  1  0  0  0  0
  2  3  1  0  0  0  0
  3  4  1  0  0  0  0
  3  8  2  0  0  0  0
  4  5  2  0  0  0  0
  4 28  1  0  0  0  0
  5  6  1  0  0  0  0
  5 29  1  0  0  0  0
  6  7  2  0  0  0  0
  6 30  1  0  0  0  0
  7  8  1  0  0  0  0
  7  9  1  0  0  0  0
  8 31  1  0  0  0  0
  9 10  1  0  0  0  0
  9 24  2  0  0  0  0
 10 11  2  0  0  0  0
 10 32  1  0  0  0  0
 11 12  1  0  0  0  0
 11 33  1  0  0  0  0
 12 13  2  0  0  0  0
 12 34  1  0  0  0  0
 13 14  1  0  0  0  0
 13 24  1  0  0  0  0
 14 15  1  0  0  0  0
 14 16  1  0  0  0  0
 14 23  1  0  0  0  0
 15 35  1  0  0  0  0
 15 36  1  0  0  0  0
 15 37  1  0  0  0  0
 16 17  1  0  0  0  0
 16 38  1  0  0  0  0
 16 39  1  0  0  0  0
 17 18  2  0  0  0  0
 17 19  1  0  0  0  0
 19 20  1  0  0  0  0
 19 21  1  0  0  0  0
 20 40  1  0  0  0  0
 20 41  1  0  0  0  0
 20 42  1  0  0  0  0
 21 22  1  0  0  0  0
 21 23  2  0  0  0  0
 22 43  1  0  0  0  0
 22 44  1  0  0  0  0
 24 45  1  0  0  0  0
M  END
>  <PARENT_CMPD_ID>
4FS4

>  <STANDARD_TYPE>
Ki

>  <RELATION>
=

>  <STANDARD_VALUE>
0.27000001

>  <STANDARD_UNITS>
uM

>  <COMPOUND_KEY>
4

>  <PUBMED_ID>
23412139

>  <JOURNAL>
ACS MED.CHEM.LETT.

>  <YEAR>
2012

>  <VOLUME>
3

>  <FIRST_PAGE>
897

>  <Company>
Merck

>  <Resolution>
1.74

>  <idx>
259

>  <Model>
Test

>  <target>
6.5686364

>  <des_pred_mlr>
6.1943798

>  <RF_Canvas>
6.1545024

>  <DNN_Canvas>
6.5029573

>  <pred_CoMFA>
6.5219002

>  <pred_COMSIA>
6.3133001

>  <pred_abm5>
6.2575488

>  <pred_ff8>
5.7215505

>  <pred_gau6>
6.6043959

>  <CID>
BACE_259

>  <RF_canvas>
0

>  <DNN_canvas>
0

$$$$
3CKP_2900
  MOE2015           3D

 80 83  0  0  1  0  0  0  0  0999 V2000
   23.8480   13.3740   22.7410 C   0  0  0  0  0  0  0  0  0  0  0  0
   22.9730   13.9090   22.0550 O   0  0  0  0  0  0  0  0  0  0  0  0
   23.8740   12.0740   23.1890 N   0  0  0  0  0  0  0  0  0  0  0  0
   22.8390   11.0670   22.9210 C   0  0  3  0  0  0  0  0  0  0  0  0
   23.3900   10.0700   21.8690 C   0  0  0  0  0  0  0  0  0  0  0  0
   23.8320   10.7780   20.6010 C   0  0  0  0  0  0  0  0  0  0  0  0
   25.2070   10.8460   20.2540 C   0  0  0  0  0  0  0  0  0  0  0  0
   22.8930   11.3990   19.7450 C   0  0  0  0  0  0  0  0  0  0  0  0
   25.6230   11.5190   19.0780 C   0  0  0  0  0  0  0  0  0  0  0  0
   23.3120   12.0730   18.5720 C   0  0  0  0  0  0  0  0  0  0  0  0
   24.6790   12.1340   18.2380 C   0  0  0  0  0  0  0  0  0  0  0  0
   22.4390   10.3660   24.2310 C   0  0  3  0  0  0  0  0  0  0  0  0
   21.4430    9.4090   23.9460 O   0  0  0  0  0  0  0  0  0  0  0  0
   21.9100   11.3660   25.2430 C   0  0  0  0  0  0  0  0  0  0  0  0
   21.0980   10.7260   26.3020 N   0  3  0  0  0  0  0  0  0  0  0  0
   20.1580   11.6250   27.0240 C   0  0  0  0  0  0  0  0  0  0  0  0
   19.0880   12.1560   26.1020 C   0  0  0  0  0  0  0  0  0  0  0  0
   19.0580   13.5240   25.7190 C   0  0  0  0  0  0  0  0  0  0  0  0
   18.0560   13.9970   24.8410 C   0  0  0  0  0  0  0  0  0  0  0  0
   17.0810   13.1070   24.3400 C   0  0  0  0  0  0  0  0  0  0  0  0
   17.0910   11.7230   24.7140 C   0  0  0  0  0  0  0  0  0  0  0  0
   18.1060   11.2740   25.5970 C   0  0  0  0  0  0  0  0  0  0  0  0
   16.1270   10.8280   24.2220 N   0  0  0  0  0  0  0  0  0  0  0  0
   15.2300   11.2200   23.1260 C   0  0  0  0  0  0  0  0  0  0  0  0
   15.9860    9.4780   24.7870 C   0  0  0  0  0  0  0  0  0  0  0  0
   25.0760   14.1450   23.1590 C   0  0  3  0  0  0  0  0  0  0  0  0
   25.7470   13.5320   24.2930 N   0  0  0  0  0  0  0  0  0  0  0  0
   27.0550   13.9550   24.0480 C   0  0  0  0  0  0  0  0  0  0  0  0
   27.9150   13.7860   24.8900 O   0  0  0  0  0  0  0  0  0  0  0  0
   27.3120   14.5860   22.8040 N   0  0  0  0  0  0  0  0  0  0  0  0
   26.1280   14.2050   22.0620 C   0  0  0  0  0  0  0  0  0  0  0  0
   28.6420   14.2980   22.1820 C   0  0  0  0  0  0  0  0  0  0  0  0
   28.8700   12.9830   21.4690 C   0  0  0  0  0  0  0  0  0  0  0  0
   28.9930   11.7800   22.2010 C   0  0  0  0  0  0  0  0  0  0  0  0
   29.2160   10.5470   21.5590 C   0  0  0  0  0  0  0  0  0  0  0  0
   29.3200   10.5180   20.1380 C   0  0  0  0  0  0  0  0  0  0  0  0
   29.2010   11.7130   19.3870 C   0  0  0  0  0  0  0  0  0  0  0  0
   28.9780   12.9410   20.0490 C   0  0  0  0  0  0  0  0  0  0  0  0
   29.3370    9.4050   22.3690 O   0  0  0  0  0  0  0  0  0  0  0  0
   28.2180    8.5440   22.3450 C   0  0  0  0  0  0  0  0  0  0  0  0
   24.6670   11.7890   23.7460 H   0  0  0  0  0  0  0  0  0  0  0  0
   21.9380   11.5320   22.5210 H   0  0  0  0  0  0  0  0  0  0  0  0
   22.6080    9.3530   21.6190 H   0  0  0  0  0  0  0  0  0  0  0  0
   24.2440    9.5430   22.2950 H   0  0  0  0  0  0  0  0  0  0  0  0
   25.9430   10.3800   20.8920 H   0  0  0  0  0  0  0  0  0  0  0  0
   21.8420   11.3590   19.9890 H   0  0  0  0  0  0  0  0  0  0  0  0
   26.6720   11.5590   18.8260 H   0  0  0  0  0  0  0  0  0  0  0  0
   22.5800   12.5420   17.9310 H   0  0  0  0  0  0  0  0  0  0  0  0
   24.9990   12.6490   17.3440 H   0  0  0  0  0  0  0  0  0  0  0  0
   23.3180    9.8840   24.6590 H   0  0  0  0  0  0  0  0  0  0  0  0
   20.6910    9.8750   23.5730 H   0  0  0  0  0  0  0  0  0  0  0  0
   21.2910   12.0970   24.7220 H   0  0  0  0  0  0  0  0  0  0  0  0
   22.7550   11.8720   25.7090 H   0  0  0  0  0  0  0  0  0  0  0  0
   21.7310   10.3280   26.9810 H   0  0  0  0  0  0  0  0  0  0  0  0
   20.5560    9.9880   25.8750 H   0  0  0  0  0  0  0  0  0  0  0  0
   20.7170   12.4640   27.4390 H   0  0  0  0  0  0  0  0  0  0  0  0
   19.6850   11.0680   27.8330 H   0  0  0  0  0  0  0  0  0  0  0  0
   19.8040   14.2050   26.1000 H   0  0  0  0  0  0  0  0  0  0  0  0
   18.0360   15.0380   24.5540 H   0  0  0  0  0  0  0  0  0  0  0  0
   16.3190   13.4730   23.6680 H   0  0  0  0  0  0  0  0  0  0  0  0
   18.1290   10.2350   25.8900 H   0  0  0  0  0  0  0  0  0  0  0  0
   15.4570   12.2410   22.8180 H   0  0  0  0  0  0  0  0  0  0  0  0
   14.1960   11.1640   23.4650 H   0  0  0  0  0  0  0  0  0  0  0  0
   15.3720   10.5460   22.2810 H   0  0  0  0  0  0  0  0  0  0  0  0
   16.7160    9.3400   25.5850 H   0  0  0  0  0  0  0  0  0  0  0  0
   16.1570    8.7370   24.0060 H   0  0  0  0  0  0  0  0  0  0  0  0
   14.9800    9.3560   25.1900 H   0  0  0  0  0  0  0  0  0  0  0  0
   24.6980   15.1380   23.4010 H   0  0  0  0  0  0  0  0  0  0  0  0
   25.3750   12.9650   25.0410 H   0  0  0  0  0  0  0  0  0  0  0  0
   25.8740   14.9520   21.3100 H   0  0  0  0  0  0  0  0  0  0  0  0
   26.2560   13.2350   21.5820 H   0  0  0  0  0  0  0  0  0  0  0  0
   29.3830   14.3570   22.9790 H   0  0  0  0  0  0  0  0  0  0  0  0
   28.8280   15.0880   21.4540 H   0  0  0  0  0  0  0  0  0  0  0  0
   28.9140   11.8070   23.2780 H   0  0  0  0  0  0  0  0  0  0  0  0
   29.4900    9.5800   19.6310 H   0  0  0  0  0  0  0  0  0  0  0  0
   29.2810   11.6850   18.3100 H   0  0  0  0  0  0  0  0  0  0  0  0
   28.8890   13.8520   19.4760 H   0  0  0  0  0  0  0  0  0  0  0  0
   28.4020    7.6910   22.9990 H   0  0  0  0  0  0  0  0  0  0  0  0
   28.0520    8.1920   21.3270 H   0  0  0  0  0  0  0  0  0  0  0  0
   27.3370    9.0840   22.6910 H   0  0  0  0  0  0  0  0  0  0  0  0
  1  2  2  0  0  0  0
  1  3  1  0  0  0  0
  1 26  1  0  0  0  0
  3  4  1  0  0  0  0
  3 41  1  0  0  0  0
  4  5  1  0  0  0  0
  4 12  1  0  0  0  0
  4 42  1  0  0  0  0
  5  6  1  0  0  0  0
  5 43  1  0  0  0  0
  5 44  1  0  0  0  0
  6  7  2  0  0  0  0
  6  8  1  0  0  0  0
  7  9  1  0  0  0  0
  7 45  1  0  0  0  0
  8 10  2  0  0  0  0
  8 46  1  0  0  0  0
  9 11  2  0  0  0  0
  9 47  1  0  0  0  0
 10 11  1  0  0  0  0
 10 48  1  0  0  0  0
 11 49  1  0  0  0  0
 12 13  1  0  0  0  0
 12 14  1  0  0  0  0
 12 50  1  0  0  0  0
 13 51  1  0  0  0  0
 14 15  1  0  0  0  0
 14 52  1  0  0  0  0
 14 53  1  0  0  0  0
 15 16  1  0  0  0  0
 15 54  1  0  0  0  0
 15 55  1  0  0  0  0
 16 17  1  0  0  0  0
 16 56  1  0  0  0  0
 16 57  1  0  0  0  0
 17 18  1  0  0  0  0
 17 22  2  0  0  0  0
 18 19  2  0  0  0  0
 18 58  1  0  0  0  0
 19 20  1  0  0  0  0
 19 59  1  0  0  0  0
 20 21  2  0  0  0  0
 20 60  1  0  0  0  0
 21 22  1  0  0  0  0
 21 23  1  0  0  0  0
 22 61  1  0  0  0  0
 23 24  1  0  0  0  0
 23 25  1  0  0  0  0
 24 62  1  0  0  0  0
 24 63  1  0  0  0  0
 24 64  1  0  0  0  0
 25 65  1  0  0  0  0
 25 66  1  0  0  0  0
 25 67  1  0  0  0  0
 26 27  1  0  0  0  0
 26 31  1  0  0  0  0
 26 68  1  0  0  0  0
 27 28  1  0  0  0  0
 27 69  1  0  0  0  0
 28 29  2  0  0  0  0
 28 30  1  0  0  0  0
 30 31  1  0  0  0  0
 30 32  1  0  0  0  0
 31 70  1  0  0  0  0
 31 71  1  0  0  0  0
 32 33  1  0  0  0  0
 32 72  1  0  0  0  0
 32 73  1  0  0  0  0
 33 34  1  0  0  0  0
 33 38  2  0  0  0  0
 34 35  2  0  0  0  0
 34 74  1  0  0  0  0
 35 36  1  0  0  0  0
 35 39  1  0  0  0  0
 36 37  2  0  0  0  0
 36 75  1  0  0  0  0
 37 38  1  0  0  0  0
 37 76  1  0  0  0  0
 38 77  1  0  0  0  0
 39 40  1  0  0  0  0
 40 78  1  0  0  0  0
 40 79  1  0  0  0  0
 40 80  1  0  0  0  0
M  CHG  1  15   1
M  END
>  <PARENT_CMPD_ID>
3CKP

>  <STANDARD_TYPE>
Ki

>  <RELATION>
=

>  <STANDARD_VALUE>
0.449

>  <STANDARD_UNITS>
uM

>  <COMPOUND_KEY>
12

>  <PUBMED_ID>
18434152

>  <JOURNAL>
Bioorg.Med.Chem.Lett.

>  <YEAR>
2008

>  <VOLUME>
18

>  <FIRST_PAGE>
2900

>  <Company>
LGLS

>  <Resolution>
2.3

>  <idx>
260

>  <Model>
Test

>  <target>
6.3477535

>  <des_pred_mlr>
6.4950099

>  <RF_Canvas>
7.1560106

>  <DNN_Canvas>
6.9666276

>  <pred_CoMFA>
7.3151002

>  <pred_COMSIA>
7.5646

>  <pred_abm5>
7.7267227

>  <pred_ff8>
6.455883

>  <pred_gau6>
7.5876164

>  <CID>
BACE_260

>  <RF_canvas>
1

>  <DNN_canvas>
1

$$$$
4DJW_2444
  MOE2015           3D

 45 48  0  0  1  0  0  0  0  0999 V2000
   22.2430   13.0390   22.4360 O   0  0  0  0  0  0  0  0  0  0  0  0
   22.3840   11.8490   22.6570 C   0  0  0  0  0  0  0  0  0  0  0  0
   22.2300   10.6520   21.6250 C   0  0  3  0  0  0  0  0  0  0  0  0
   22.4360    9.4690   22.5160 N   0  0  0  0  0  0  0  0  0  0  0  0
   22.3960    8.5040   22.2190 H   0  0  0  0  0  0  0  0  0  0  0  0
   22.6790    9.8780   23.7570 C   0  0  0  0  0  0  0  0  0  0  0  0
   22.6790   11.2980   23.8820 N   0  0  0  0  0  0  0  0  0  0  0  0
   22.9010    9.0650   24.7960 N   0  3  0  0  0  0  0  0  0  0  0  0
   23.0790    9.4530   25.7120 H   0  0  0  0  0  0  0  0  0  0  0  0
   22.8910    8.0640   24.6650 H   0  0  0  0  0  0  0  0  0  0  0  0
   22.9140   12.0930   25.0950 C   0  0  0  0  0  0  0  0  0  0  0  0
   22.8450   13.1540   24.8530 H   0  0  0  0  0  0  0  0  0  0  0  0
   23.9070   11.8730   25.4870 H   0  0  0  0  0  0  0  0  0  0  0  0
   22.1640   11.8420   25.8450 H   0  0  0  0  0  0  0  0  0  0  0  0
   20.7930   10.6110   21.0710 C   0  0  0  0  0  0  0  0  0  0  0  0
   20.1670    9.3980   20.8030 C   0  0  0  0  0  0  0  0  0  0  0  0
   20.7000    8.4740   20.9740 H   0  0  0  0  0  0  0  0  0  0  0  0
   18.8630    9.3590   20.3180 C   0  0  0  0  0  0  0  0  0  0  0  0
   18.3930    8.4080   20.1180 H   0  0  0  0  0  0  0  0  0  0  0  0
   18.1690   10.5270   20.0920 C   0  0  0  0  0  0  0  0  0  0  0  0
   17.1550   10.4940   19.7220 H   0  0  0  0  0  0  0  0  0  0  0  0
   18.7770   11.7360   20.3410 C   0  0  0  0  0  0  0  0  0  0  0  0
   18.2390   12.6550   20.1600 H   0  0  0  0  0  0  0  0  0  0  0  0
   20.0800   11.7800   20.8240 C   0  0  0  0  0  0  0  0  0  0  0  0
   20.5460   12.7360   21.0100 H   0  0  0  0  0  0  0  0  0  0  0  0
   23.3770   10.6910   20.5920 C   0  0  0  0  0  0  0  0  0  0  0  0
   23.0970   10.8000   19.2360 C   0  0  0  0  0  0  0  0  0  0  0  0
   22.0700   10.8150   18.9030 H   0  0  0  0  0  0  0  0  0  0  0  0
   24.1190   10.8900   18.3050 C   0  0  0  0  0  0  0  0  0  0  0  0
   23.8840   10.9780   17.2550 H   0  0  0  0  0  0  0  0  0  0  0  0
   25.4350   10.8670   18.7150 C   0  0  0  0  0  0  0  0  0  0  0  0
   26.2240   10.9340   17.9810 H   0  0  0  0  0  0  0  0  0  0  0  0
   25.7590   10.7590   20.0650 C   0  0  0  0  0  0  0  0  0  0  0  0
   24.7160   10.6610   21.0020 C   0  0  0  0  0  0  0  0  0  0  0  0
   24.9500   10.5610   22.0520 H   0  0  0  0  0  0  0  0  0  0  0  0
   29.7440   10.9280   21.5020 C   0  0  0  0  0  0  0  0  0  0  0  0
   30.7510   10.9770   21.8900 H   0  0  0  0  0  0  0  0  0  0  0  0
   29.0210    9.8320   21.7510 N   0  0  0  0  0  0  0  0  0  0  0  0
   27.7770    9.7890   21.2520 C   0  0  0  0  0  0  0  0  0  0  0  0
   27.1930    8.8980   21.4300 H   0  0  0  0  0  0  0  0  0  0  0  0
   27.1890   10.8160   20.5200 C   0  0  0  0  0  0  0  0  0  0  0  0
   27.9770   11.9390   20.2850 C   0  0  0  0  0  0  0  0  0  0  0  0
   27.5780   12.7670   19.7180 H   0  0  0  0  0  0  0  0  0  0  0  0
   29.2700   11.9980   20.7760 C   0  0  0  0  0  0  0  0  0  0  0  0
   29.8920   12.8620   20.5940 H   0  0  0  0  0  0  0  0  0  0  0  0
  1  2  2  0  0  0  0
  2  3  1  0  0  0  0
  2  7  1  0  0  0  0
  3  4  1  0  0  0  0
  3 15  1  0  0  0  0
  3 26  1  0  0  0  0
  4  5  1  0  0  0  0
  4  6  1  0  0  0  0
  6  7  1  0  0  0  0
  6  8  2  0  0  0  0
  7 11  1  0  0  0  0
  8  9  1  0  0  0  0
  8 10  1  0  0  0  0
 11 12  1  0  0  0  0
 11 13  1  0  0  0  0
 11 14  1  0  0  0  0
 15 16  1  0  0  0  0
 15 24  2  0  0  0  0
 16 17  1  0  0  0  0
 16 18  2  0  0  0  0
 18 19  1  0  0  0  0
 18 20  1  0  0  0  0
 20 21  1  0  0  0  0
 20 22  2  0  0  0  0
 22 23  1  0  0  0  0
 22 24  1  0  0  0  0
 24 25  1  0  0  0  0
 26 27  1  0  0  0  0
 26 34  2  0  0  0  0
 27 28  1  0  0  0  0
 27 29  2  0  0  0  0
 29 30  1  0  0  0  0
 29 31  1  0  0  0  0
 31 32  1  0  0  0  0
 31 33  2  0  0  0  0
 33 34  1  0  0  0  0
 33 41  1  0  0  0  0
 34 35  1  0  0  0  0
 36 37  1  0  0  0  0
 36 38  1  0  0  0  0
 36 44  2  0  0  0  0
 38 39  2  0  0  0  0
 39 40  1  0  0  0  0
 39 41  1  0  0  0  0
 41 42  2  0  0  0  0
 42 43  1  0  0  0  0
 42 44  1  0  0  0  0
 44 45  1  0  0  0  0
M  CHG  1   8   1
M  END
>  <PARENT_CMPD_ID>
4DJW

>  <STANDARD_TYPE>
Ki

>  <RELATION>
=

>  <STANDARD_VALUE>
0.52999997

>  <STANDARD_UNITS>
uM

>  <COMPOUND_KEY>
4j

>  <PUBMED_ID>
22390835

>  <JOURNAL>
Bioorg.Med.Chem.Lett.

>  <YEAR>
2012

>  <VOLUME>
22

>  <FIRST_PAGE>
2444

>  <Company>
Merck

>  <Resolution>
1.9

>  <idx>
261

>  <Model>
Test

>  <target>
6.2757239

>  <des_pred_mlr>
5.5617599

>  <RF_Canvas>
6.6165447

>  <DNN_Canvas>
6.1718597

>  <pred_CoMFA>
5.7006998

>  <pred_COMSIA>
6.3646002

>  <pred_abm5>
7.1492915

>  <pred_ff8>
5.0547652

>  <pred_gau6>
6.1008372

>  <CID>
BACE_261

>  <RF_canvas>
0

>  <DNN_canvas>
0

$$$$
2Q15_4261
  MOE2015           3D

 80 84  0  0  1  0  0  0  0  0999 V2000
   26.2970   13.4250   20.4440 C   0  0  0  0  0  0  0  0  0  0  0  0
   25.2250   12.7050   21.1240 N   0  0  0  0  0  0  0  0  0  0  0  0
   24.7870   13.2100   22.3230 C   0  0  0  0  0  0  0  0  0  0  0  0
   25.2740   14.2340   22.7820 O   0  0  0  0  0  0  0  0  0  0  0  0
   23.7010   12.4990   23.0930 C   0  0  0  0  0  0  0  0  0  0  0  0
   23.1830   13.2620   24.2990 C   0  0  0  0  0  0  0  0  0  0  0  0
   22.6030   12.1780   25.2200 C   0  0  3  0  0  0  0  0  0  0  0  0
   21.7480   12.8660   26.2840 C   0  0  0  0  0  0  0  0  0  0  0  0
   20.8990   11.7550   26.8860 C   0  0  0  0  0  0  0  0  0  0  0  0
   20.0140   12.2440   28.0190 C   0  0  0  0  0  0  0  0  0  0  0  0
   20.8580   12.8910   29.1170 C   0  0  0  0  0  0  0  0  0  0  0  0
   21.6690   14.0040   28.4670 C   0  0  0  0  0  0  0  0  0  0  0  0
   22.6210   13.4490   27.4040 C   0  0  0  0  0  0  0  0  0  0  0  0
   21.7390   11.2460   24.4860 N   0  0  0  0  0  0  0  0  0  0  0  0
   20.4700   11.8160   24.0330 C   0  0  0  0  0  0  0  0  0  0  0  0
   20.2970   11.4320   22.5770 C   0  0  0  0  0  0  0  0  0  0  0  0
   19.6630   12.3280   21.6860 C   0  0  0  0  0  0  0  0  0  0  0  0
   19.4860   11.9670   20.3460 C   0  0  0  0  0  0  0  0  0  0  0  0
   18.8170   12.7550   19.4380 O   0  0  0  0  0  0  0  0  0  0  0  0
   19.5330   13.6260   18.6630 C   0  0  0  0  0  0  0  0  0  0  0  0
   20.8280   13.9640   18.9750 C   0  0  0  0  0  0  0  0  0  0  0  0
   21.5230   14.8500   18.1910 C   0  0  0  0  0  0  0  0  0  0  0  0
   20.9390   15.4150   17.0670 C   0  0  0  0  0  0  0  0  0  0  0  0
   19.6640   15.0640   16.7670 C   0  0  0  0  0  0  0  0  0  0  0  0
   18.9350   14.1880   17.5420 C   0  0  0  0  0  0  0  0  0  0  0  0
   19.9000   10.6990   19.9670 C   0  0  0  0  0  0  0  0  0  0  0  0
   20.5280    9.8220   20.8440 C   0  0  0  0  0  0  0  0  0  0  0  0
   20.7520   10.1590   22.1750 C   0  0  0  0  0  0  0  0  0  0  0  0
   21.4210    9.3040   23.0640 N   0  3  0  0  0  0  0  0  0  0  0  0
   22.0410    9.9060   24.1180 C   0  0  0  0  0  0  0  0  0  0  0  0
   22.8600    9.2000   24.9270 N   0  0  0  0  0  0  0  0  0  0  0  0
   24.6180   11.5260   20.5000 C   0  0  0  0  0  0  0  0  0  0  0  0
   25.3610   11.1810   19.2310 C   0  0  0  0  0  0  0  0  0  0  0  0
   24.5100   10.1280   18.5660 C   0  0  0  0  0  0  0  0  0  0  0  0
   24.7290    8.9010   19.4520 C   0  0  0  0  0  0  0  0  0  0  0  0
   23.9580    9.1320   20.7450 C   0  0  0  0  0  0  0  0  0  0  0  0
   24.6610   10.2970   21.3970 C   0  0  0  0  0  0  0  0  0  0  0  0
   26.6170   14.2660   21.0590 H   0  0  0  0  0  0  0  0  0  0  0  0
   25.9350   13.7940   19.4840 H   0  0  0  0  0  0  0  0  0  0  0  0
   27.1390   12.7530   20.2800 H   0  0  0  0  0  0  0  0  0  0  0  0
   24.0980   11.5440   23.4390 H   0  0  0  0  0  0  0  0  0  0  0  0
   22.8640   12.3220   22.4170 H   0  0  0  0  0  0  0  0  0  0  0  0
   22.4090   13.9710   24.0030 H   0  0  0  0  0  0  0  0  0  0  0  0
   23.9940   13.7950   24.7950 H   0  0  0  0  0  0  0  0  0  0  0  0
   23.4310   11.6180   25.6540 H   0  0  0  0  0  0  0  0  0  0  0  0
   21.1680   13.6790   25.8480 H   0  0  0  0  0  0  0  0  0  0  0  0
   21.5610   10.9790   27.2700 H   0  0  0  0  0  0  0  0  0  0  0  0
   20.2650   11.3370   26.1040 H   0  0  0  0  0  0  0  0  0  0  0  0
   19.4680   11.3990   28.4380 H   0  0  0  0  0  0  0  0  0  0  0  0
   19.3070   12.9770   27.6310 H   0  0  0  0  0  0  0  0  0  0  0  0
   21.5260   12.1520   29.5590 H   0  0  0  0  0  0  0  0  0  0  0  0
   20.2110   13.3040   29.8910 H   0  0  0  0  0  0  0  0  0  0  0  0
   22.2520   14.5140   29.2340 H   0  0  0  0  0  0  0  0  0  0  0  0
   20.9870   14.7130   27.9980 H   0  0  0  0  0  0  0  0  0  0  0  0
   23.2510   14.2470   27.0110 H   0  0  0  0  0  0  0  0  0  0  0  0
   23.2490   12.6690   27.8340 H   0  0  0  0  0  0  0  0  0  0  0  0
   20.4920   12.9010   24.1320 H   0  0  0  0  0  0  0  0  0  0  0  0
   19.6480   11.4140   24.6250 H   0  0  0  0  0  0  0  0  0  0  0  0
   19.3160   13.2880   22.0390 H   0  0  0  0  0  0  0  0  0  0  0  0
   21.3020   13.5290   19.8430 H   0  0  0  0  0  0  0  0  0  0  0  0
   22.5380   15.1110   18.4530 H   0  0  0  0  0  0  0  0  0  0  0  0
   21.4830   16.1140   16.4490 H   0  0  0  0  0  0  0  0  0  0  0  0
   19.2020   15.4870   15.8870 H   0  0  0  0  0  0  0  0  0  0  0  0
   17.9160   13.9430   17.2820 H   0  0  0  0  0  0  0  0  0  0  0  0
   19.7280   10.3800   18.9500 H   0  0  0  0  0  0  0  0  0  0  0  0
   20.8500    8.8560   20.4830 H   0  0  0  0  0  0  0  0  0  0  0  0
   23.2580    9.5810   25.7690 H   0  0  0  0  0  0  0  0  0  0  0  0
   23.0660    8.2420   24.6800 H   0  0  0  0  0  0  0  0  0  0  0  0
   23.5770   11.7840   20.3050 H   0  0  0  0  0  0  0  0  0  0  0  0
   26.3510   10.7870   19.4600 H   0  0  0  0  0  0  0  0  0  0  0  0
   25.4580   12.0580   18.5910 H   0  0  0  0  0  0  0  0  0  0  0  0
   24.8450    9.9400   17.5460 H   0  0  0  0  0  0  0  0  0  0  0  0
   23.4600   10.4220   18.5550 H   0  0  0  0  0  0  0  0  0  0  0  0
   25.7910    8.7810   19.6670 H   0  0  0  0  0  0  0  0  0  0  0  0
   24.3570    8.0080   18.9500 H   0  0  0  0  0  0  0  0  0  0  0  0
   24.0010    8.2490   21.3830 H   0  0  0  0  0  0  0  0  0  0  0  0
   22.9170    9.3780   20.5350 H   0  0  0  0  0  0  0  0  0  0  0  0
   24.1690   10.5270   22.3420 H   0  0  0  0  0  0  0  0  0  0  0  0
   25.7000   10.0280   21.5840 H   0  0  0  0  0  0  0  0  0  0  0  0
   21.4420    8.3030   22.9310 H   0  0  0  0  0  0  0  0  0  0  0  0
  1  2  1  0  0  0  0
  1 38  1  0  0  0  0
  1 39  1  0  0  0  0
  1 40  1  0  0  0  0
  2  3  1  0  0  0  0
  2 32  1  0  0  0  0
  3  4  2  0  0  0  0
  3  5  1  0  0  0  0
  5  6  1  0  0  0  0
  5 41  1  0  0  0  0
  5 42  1  0  0  0  0
  6  7  1  0  0  0  0
  6 43  1  0  0  0  0
  6 44  1  0  0  0  0
  7  8  1  0  0  0  0
  7 14  1  0  0  0  0
  7 45  1  0  0  0  0
  8  9  1  0  0  0  0
  8 13  1  0  0  0  0
  8 46  1  0  0  0  0
  9 10  1  0  0  0  0
  9 47  1  0  0  0  0
  9 48  1  0  0  0  0
 10 11  1  0  0  0  0
 10 49  1  0  0  0  0
 10 50  1  0  0  0  0
 11 12  1  0  0  0  0
 11 51  1  0  0  0  0
 11 52  1  0  0  0  0
 12 13  1  0  0  0  0
 12 53  1  0  0  0  0
 12 54  1  0  0  0  0
 13 55  1  0  0  0  0
 13 56  1  0  0  0  0
 14 15  1  0  0  0  0
 14 30  1  0  0  0  0
 15 16  1  0  0  0  0
 15 57  1  0  0  0  0
 15 58  1  0  0  0  0
 16 17  1  0  0  0  0
 16 28  2  0  0  0  0
 17 18  2  0  0  0  0
 17 59  1  0  0  0  0
 18 19  1  0  0  0  0
 18 26  1  0  0  0  0
 19 20  1  0  0  0  0
 20 21  1  0  0  0  0
 20 25  2  0  0  0  0
 21 22  2  0  0  0  0
 21 60  1  0  0  0  0
 22 23  1  0  0  0  0
 22 61  1  0  0  0  0
 23 24  2  0  0  0  0
 23 62  1  0  0  0  0
 24 25  1  0  0  0  0
 24 63  1  0  0  0  0
 25 64  1  0  0  0  0
 26 27  2  0  0  0  0
 26 65  1  0  0  0  0
 27 28  1  0  0  0  0
 27 66  1  0  0  0  0
 28 29  1  0  0  0  0
 29 30  2  0  0  0  0
 29 80  1  0  0  0  0
 30 31  1  0  0  0  0
 31 67  1  0  0  0  0
 31 68  1  0  0  0  0
 32 33  1  0  0  0  0
 32 37  1  0  0  0  0
 32 69  1  0  0  0  0
 33 34  1  0  0  0  0
 33 70  1  0  0  0  0
 33 71  1  0  0  0  0
 34 35  1  0  0  0  0
 34 72  1  0  0  0  0
 34 73  1  0  0  0  0
 35 36  1  0  0  0  0
 35 74  1  0  0  0  0
 35 75  1  0  0  0  0
 36 37  1  0  0  0  0
 36 76  1  0  0  0  0
 36 77  1  0  0  0  0
 37 78  1  0  0  0  0
 37 79  1  0  0  0  0
M  CHG  1  29   1
M  END
>  <PARENT_CMPD_ID>
2Q15

>  <STANDARD_TYPE>
Ki

>  <RELATION>
=

>  <STANDARD_VALUE>
0.89999998

>  <STANDARD_UNITS>
uM

>  <COMPOUND_KEY>
1

>  <PUBMED_ID>
17685503

>  <JOURNAL>
J.Med.Chem.

>  <YEAR>
2007

>  <VOLUME>
50

>  <FIRST_PAGE>
4261

>  <Company>
JnJ

>  <Resolution>
2.4000001

>  <idx>
262

>  <Model>
Test

>  <target>
6.0457573

>  <des_pred_mlr>
7.0835099

>  <RF_Canvas>
7.0219812

>  <DNN_Canvas>
7.1954513

>  <pred_CoMFA>
5.3112998

>  <pred_COMSIA>
6.5728002

>  <pred_abm5>
5.8106966

>  <pred_ff8>
4.5643516

>  <pred_gau6>
6.5250711

>  <CID>
BACE_262

>  <RF_canvas>
1

>  <DNN_canvas>
0

$$$$
4DJU_2444
  MOE2015           3D

 36 38  0  0  0  0  0  0  0  0999 V2000
   21.8740   13.1990   22.6330 O   0  0  0  0  0  0  0  0  0  0  0  0
   22.0420   12.0080   22.8170 C   0  0  0  0  0  0  0  0  0  0  0  0
   21.7980   10.8540   21.8030 C   0  0  0  0  0  0  0  0  0  0  0  0
   22.1600    9.6330   22.5690 N   0  0  0  0  0  0  0  0  0  0  0  0
   22.1370    8.6840   22.2230 H   0  0  0  0  0  0  0  0  0  0  0  0
   22.5260   10.0200   23.8110 C   0  0  0  0  0  0  0  0  0  0  0  0
   22.4810   11.4360   23.9890 N   0  0  0  0  0  0  0  0  0  0  0  0
   22.9030    9.2010   24.7910 N   0  3  0  0  0  0  0  0  0  0  0  0
   23.1610    9.5770   25.6920 H   0  0  0  0  0  0  0  0  0  0  0  0
   22.9310    8.2040   24.6330 H   0  0  0  0  0  0  0  0  0  0  0  0
   22.8080   12.2100   25.1920 C   0  0  0  0  0  0  0  0  0  0  0  0
   22.6680   13.2720   24.9900 H   0  0  0  0  0  0  0  0  0  0  0  0
   23.8460   12.0270   25.4710 H   0  0  0  0  0  0  0  0  0  0  0  0
   22.1530   11.9060   26.0090 H   0  0  0  0  0  0  0  0  0  0  0  0
   20.3180   10.6930   21.4060 C   0  0  0  0  0  0  0  0  0  0  0  0
   19.9330    9.7670   20.4420 C   0  0  0  0  0  0  0  0  0  0  0  0
   20.6810    9.1470   19.9700 H   0  0  0  0  0  0  0  0  0  0  0  0
   18.5980    9.6290   20.0780 C   0  0  0  0  0  0  0  0  0  0  0  0
   18.3170    8.9050   19.3280 H   0  0  0  0  0  0  0  0  0  0  0  0
   17.6300   10.4150   20.6730 C   0  0  0  0  0  0  0  0  0  0  0  0
   16.5950   10.3150   20.3820 H   0  0  0  0  0  0  0  0  0  0  0  0
   17.9930   11.3270   21.6390 C   0  0  0  0  0  0  0  0  0  0  0  0
   17.2390   11.9380   22.1130 H   0  0  0  0  0  0  0  0  0  0  0  0
   19.3270   11.4650   22.0070 C   0  0  0  0  0  0  0  0  0  0  0  0
   19.5980   12.1810   22.7690 H   0  0  0  0  0  0  0  0  0  0  0  0
   22.6780   11.1030   20.5650 C   0  0  0  0  0  0  0  0  0  0  0  0
   22.4900   12.2240   19.7570 C   0  0  0  0  0  0  0  0  0  0  0  0
   21.6990   12.9220   19.9890 H   0  0  0  0  0  0  0  0  0  0  0  0
   23.3100   12.4550   18.6540 C   0  0  0  0  0  0  0  0  0  0  0  0
   23.1470   13.3250   18.0350 H   0  0  0  0  0  0  0  0  0  0  0  0
   24.3300   11.5750   18.3490 C   0  0  0  0  0  0  0  0  0  0  0  0
   24.9680   11.7580   17.4970 H   0  0  0  0  0  0  0  0  0  0  0  0
   24.5290   10.4600   19.1390 C   0  0  0  0  0  0  0  0  0  0  0  0
   25.3260    9.7700   18.9050 H   0  0  0  0  0  0  0  0  0  0  0  0
   23.7050   10.2210   20.2380 C   0  0  0  0  0  0  0  0  0  0  0  0
   23.8650    9.3410   20.8430 H   0  0  0  0  0  0  0  0  0  0  0  0
  1  2  2  0  0  0  0
  2  3  1  0  0  0  0
  2  7  1  0  0  0  0
  3  4  1  0  0  0  0
  3 15  1  0  0  0  0
  3 26  1  0  0  0  0
  4  5  1  0  0  0  0
  4  6  1  0  0  0  0
  6  7  1  0  0  0  0
  6  8  2  0  0  0  0
  7 11  1  0  0  0  0
  8  9  1  0  0  0  0
  8 10  1  0  0  0  0
 11 12  1  0  0  0  0
 11 13  1  0  0  0  0
 11 14  1  0  0  0  0
 15 16  1  0  0  0  0
 15 24  2  0  0  0  0
 16 17  1  0  0  0  0
 16 18  2  0  0  0  0
 18 19  1  0  0  0  0
 18 20  1  0  0  0  0
 20 21  1  0  0  0  0
 20 22  2  0  0  0  0
 22 23  1  0  0  0  0
 22 24  1  0  0  0  0
 24 25  1  0  0  0  0
 26 27  1  0  0  0  0
 26 35  2  0  0  0  0
 27 28  1  0  0  0  0
 27 29  2  0  0  0  0
 29 30  1  0  0  0  0
 29 31  1  0  0  0  0
 31 32  1  0  0  0  0
 31 33  2  0  0  0  0
 33 34  1  0  0  0  0
 33 35  1  0  0  0  0
 35 36  1  0  0  0  0
M  CHG  1   8   1
M  END
>  <PARENT_CMPD_ID>
4DJU

>  <STANDARD_TYPE>
Ki

>  <RELATION>
=

>  <STANDARD_VALUE>
3.5999999

>  <STANDARD_UNITS>
uM

>  <COMPOUND_KEY>
1

>  <PUBMED_ID>
22390835

>  <JOURNAL>
Bioorg.Med.Chem.Lett.

>  <YEAR>
2012

>  <VOLUME>
22

>  <FIRST_PAGE>
2444

>  <Company>
Merck

>  <Resolution>
1.8

>  <idx>
263

>  <Model>
Test

>  <target>
5.4436975

>  <des_pred_mlr>
3.2937601

>  <RF_Canvas>
4.3872585

>  <DNN_Canvas>
4.7031837

>  <pred_CoMFA>
5.1226001

>  <pred_COMSIA>
5.0879998

>  <pred_abm5>
6.0836892

>  <pred_ff8>
4.7838979

>  <pred_gau6>
5.0850806

>  <CID>
BACE_263

>  <RF_canvas>
0

>  <DNN_canvas>
0

$$$$
3CKR_2900
  MOE2015           3D

 89 93  0  0  1  0  0  0  0  0999 V2000
   23.9950   13.3830   22.8420 C   0  0  0  0  0  0  0  0  0  0  0  0
   22.9720   13.8970   22.3730 O   0  0  0  0  0  0  0  0  0  0  0  0
   24.1170   12.0370   23.1130 N   0  0  0  0  0  0  0  0  0  0  0  0
   23.0350   11.0290   22.8640 C   0  0  3  0  0  0  0  0  0  0  0  0
   23.6140    9.9780   21.8710 C   0  0  0  0  0  0  0  0  0  0  0  0
   24.0550   10.6710   20.6110 C   0  0  0  0  0  0  0  0  0  0  0  0
   25.3800   10.5580   20.1520 C   0  0  0  0  0  0  0  0  0  0  0  0
   23.1370   11.4700   19.8750 C   0  0  0  0  0  0  0  0  0  0  0  0
   25.7870   11.2270   18.9840 C   0  0  0  0  0  0  0  0  0  0  0  0
   23.5450   12.1430   18.7050 C   0  0  0  0  0  0  0  0  0  0  0  0
   24.8780   12.0190   18.2600 C   0  0  0  0  0  0  0  0  0  0  0  0
   22.5700   10.3990   24.1870 C   0  0  3  0  0  0  0  0  0  0  0  0
   21.5640    9.4470   23.8720 O   0  0  0  0  0  0  0  0  0  0  0  0
   21.9610   11.4470   25.1090 C   0  0  0  0  0  0  0  0  0  0  0  0
   20.9810   10.8180   26.0150 N   0  3  0  0  0  0  0  0  0  0  0  0
   20.2670   11.7510   26.9020 C   0  0  0  0  0  0  0  0  0  0  0  0
   19.0860   12.2760   26.1370 C   0  0  0  0  0  0  0  0  0  0  0  0
   18.9150   13.6610   25.9040 C   0  0  0  0  0  0  0  0  0  0  0  0
   17.8000   14.1230   25.1600 C   0  0  0  0  0  0  0  0  0  0  0  0
   16.8480   13.1950   24.6420 C   0  0  0  0  0  0  0  0  0  0  0  0
   17.0080   11.7900   24.8690 C   0  0  0  0  0  0  0  0  0  0  0  0
   18.1330   11.3530   25.6180 C   0  0  0  0  0  0  0  0  0  0  0  0
   16.0880   10.8680   24.3680 N   0  0  0  0  0  0  0  0  0  0  0  0
   15.9850   10.6470   22.9290 C   0  0  0  0  0  0  0  0  0  0  0  0
   15.2230   10.1080   25.2730 C   0  0  0  0  0  0  0  0  0  0  0  0
   25.3080   14.2320   23.1460 C   0  0  3  0  0  0  0  0  0  0  0  0
   25.8970   13.7820   24.4160 N   0  0  0  0  0  0  0  0  0  0  0  0
   27.2410   13.8040   24.2740 C   0  0  0  0  0  0  0  0  0  0  0  0
   28.0440   13.4970   25.1560 O   0  0  0  0  0  0  0  0  0  0  0  0
   27.6630   14.2500   22.9780 N   0  0  0  0  0  0  0  0  0  0  0  0
   26.4630   13.9520   22.1660 C   0  0  0  0  0  0  0  0  0  0  0  0
   29.0090   13.7620   22.5020 C   0  0  0  0  0  0  0  0  0  0  0  0
   29.0720   12.5120   21.6530 C   0  0  0  0  0  0  0  0  0  0  0  0
   28.9970   11.2260   22.2460 C   0  0  0  0  0  0  0  0  0  0  0  0
   29.2080   12.6170   20.2390 C   0  0  0  0  0  0  0  0  0  0  0  0
   29.2620   11.4560   19.4350 C   0  0  0  0  0  0  0  0  0  0  0  0
   29.0510   10.0660   21.4480 C   0  0  0  0  0  0  0  0  0  0  0  0
   29.1810   10.1810   20.0370 C   0  0  0  0  0  0  0  0  0  0  0  0
   24.9040   15.7740   23.2400 C   0  0  0  0  0  0  0  0  0  0  0  0
   27.6180   18.3970   22.2540 C   0  0  0  0  0  0  0  0  0  0  0  0
   28.1630   18.7260   23.5250 C   0  0  0  0  0  0  0  0  0  0  0  0
   27.6490   18.1130   24.6970 C   0  0  0  0  0  0  0  0  0  0  0  0
   26.5930   17.1640   24.6150 C   0  0  0  0  0  0  0  0  0  0  0  0
   26.0340   16.8140   23.3490 C   0  0  0  0  0  0  0  0  0  0  0  0
   26.5610   17.4480   22.1660 C   0  0  0  0  0  0  0  0  0  0  0  0
   24.9890   11.7090   23.5030 H   0  0  0  0  0  0  0  0  0  0  0  0
   22.1490   11.4910   22.4280 H   0  0  0  0  0  0  0  0  0  0  0  0
   22.8460    9.2420   21.6320 H   0  0  0  0  0  0  0  0  0  0  0  0
   24.4670    9.4770   22.3280 H   0  0  0  0  0  0  0  0  0  0  0  0
   26.0880    9.9540   20.7000 H   0  0  0  0  0  0  0  0  0  0  0  0
   22.1160   11.5620   20.2160 H   0  0  0  0  0  0  0  0  0  0  0  0
   26.8060   11.1320   18.6400 H   0  0  0  0  0  0  0  0  0  0  0  0
   22.8420   12.7490   18.1530 H   0  0  0  0  0  0  0  0  0  0  0  0
   25.2000   12.5310   17.3650 H   0  0  0  0  0  0  0  0  0  0  0  0
   23.4230    9.9460   24.6920 H   0  0  0  0  0  0  0  0  0  0  0  0
   20.8500    9.9140   23.4330 H   0  0  0  0  0  0  0  0  0  0  0  0
   21.4610   12.2080   24.5090 H   0  0  0  0  0  0  0  0  0  0  0  0
   22.7510   11.9110   25.6990 H   0  0  0  0  0  0  0  0  0  0  0  0
   21.4710   10.1500   26.5920 H   0  0  0  0  0  0  0  0  0  0  0  0
   20.2960   10.3360   25.4500 H   0  0  0  0  0  0  0  0  0  0  0  0
   20.9240   12.5730   27.1850 H   0  0  0  0  0  0  0  0  0  0  0  0
   19.9300   11.2300   27.7980 H   0  0  0  0  0  0  0  0  0  0  0  0
   19.6340   14.3670   26.2930 H   0  0  0  0  0  0  0  0  0  0  0  0
   17.6710   15.1810   24.9850 H   0  0  0  0  0  0  0  0  0  0  0  0
   16.0020   13.5540   24.0750 H   0  0  0  0  0  0  0  0  0  0  0  0
   18.2690   10.2970   25.7980 H   0  0  0  0  0  0  0  0  0  0  0  0
   16.6960   11.2910   22.4110 H   0  0  0  0  0  0  0  0  0  0  0  0
   14.9740   10.8810   22.5970 H   0  0  0  0  0  0  0  0  0  0  0  0
   16.2090    9.6040   22.7050 H   0  0  0  0  0  0  0  0  0  0  0  0
   15.4320   10.3970   26.3030 H   0  0  0  0  0  0  0  0  0  0  0  0
   15.4140    9.0420   25.1490 H   0  0  0  0  0  0  0  0  0  0  0  0
   14.1790   10.3190   25.0410 H   0  0  0  0  0  0  0  0  0  0  0  0
   25.3890   13.5060   25.2440 H   0  0  0  0  0  0  0  0  0  0  0  0
   26.4060   14.6050   21.2950 H   0  0  0  0  0  0  0  0  0  0  0  0
   26.4580   12.9120   21.8400 H   0  0  0  0  0  0  0  0  0  0  0  0
   29.6150   13.5780   23.3890 H   0  0  0  0  0  0  0  0  0  0  0  0
   29.4540   14.5680   21.9190 H   0  0  0  0  0  0  0  0  0  0  0  0
   28.8980   11.1350   23.3180 H   0  0  0  0  0  0  0  0  0  0  0  0
   29.2700   13.5920   19.7780 H   0  0  0  0  0  0  0  0  0  0  0  0
   29.3650   11.5440   18.3630 H   0  0  0  0  0  0  0  0  0  0  0  0
   28.9940    9.0900   21.9080 H   0  0  0  0  0  0  0  0  0  0  0  0
   29.2180    9.2920   19.4250 H   0  0  0  0  0  0  0  0  0  0  0  0
   24.2710   15.8900   24.1200 H   0  0  0  0  0  0  0  0  0  0  0  0
   24.3290   16.0130   22.3450 H   0  0  0  0  0  0  0  0  0  0  0  0
   28.0040   18.8650   21.3600 H   0  0  0  0  0  0  0  0  0  0  0  0
   28.9680   19.4420   23.5990 H   0  0  0  0  0  0  0  0  0  0  0  0
   28.0640   18.3700   25.6610 H   0  0  0  0  0  0  0  0  0  0  0  0
   26.2120   16.7060   25.5160 H   0  0  0  0  0  0  0  0  0  0  0  0
   26.1480   17.1990   21.2000 H   0  0  0  0  0  0  0  0  0  0  0  0
  1  2  2  0  0  0  0
  1  3  1  0  0  0  0
  1 26  1  0  0  0  0
  3  4  1  0  0  0  0
  3 46  1  0  0  0  0
  4  5  1  0  0  0  0
  4 12  1  0  0  0  0
  4 47  1  0  0  0  0
  5  6  1  0  0  0  0
  5 48  1  0  0  0  0
  5 49  1  0  0  0  0
  6  7  2  0  0  0  0
  6  8  1  0  0  0  0
  7  9  1  0  0  0  0
  7 50  1  0  0  0  0
  8 10  2  0  0  0  0
  8 51  1  0  0  0  0
  9 11  2  0  0  0  0
  9 52  1  0  0  0  0
 10 11  1  0  0  0  0
 10 53  1  0  0  0  0
 11 54  1  0  0  0  0
 12 13  1  0  0  0  0
 12 14  1  0  0  0  0
 12 55  1  0  0  0  0
 13 56  1  0  0  0  0
 14 15  1  0  0  0  0
 14 57  1  0  0  0  0
 14 58  1  0  0  0  0
 15 16  1  0  0  0  0
 15 59  1  0  0  0  0
 15 60  1  0  0  0  0
 16 17  1  0  0  0  0
 16 61  1  0  0  0  0
 16 62  1  0  0  0  0
 17 18  1  0  0  0  0
 17 22  2  0  0  0  0
 18 19  2  0  0  0  0
 18 63  1  0  0  0  0
 19 20  1  0  0  0  0
 19 64  1  0  0  0  0
 20 21  2  0  0  0  0
 20 65  1  0  0  0  0
 21 22  1  0  0  0  0
 21 23  1  0  0  0  0
 22 66  1  0  0  0  0
 23 24  1  0  0  0  0
 23 25  1  0  0  0  0
 24 67  1  0  0  0  0
 24 68  1  0  0  0  0
 24 69  1  0  0  0  0
 25 70  1  0  0  0  0
 25 71  1  0  0  0  0
 25 72  1  0  0  0  0
 26 27  1  0  0  0  0
 26 31  1  0  0  0  0
 26 39  1  0  0  0  0
 27 28  1  0  0  0  0
 27 73  1  0  0  0  0
 28 29  2  0  0  0  0
 28 30  1  0  0  0  0
 30 31  1  0  0  0  0
 30 32  1  0  0  0  0
 31 74  1  0  0  0  0
 31 75  1  0  0  0  0
 32 33  1  0  0  0  0
 32 76  1  0  0  0  0
 32 77  1  0  0  0  0
 33 34  1  0  0  0  0
 33 35  2  0  0  0  0
 34 37  2  0  0  0  0
 34 78  1  0  0  0  0
 35 36  1  0  0  0  0
 35 79  1  0  0  0  0
 36 38  2  0  0  0  0
 36 80  1  0  0  0  0
 37 38  1  0  0  0  0
 37 81  1  0  0  0  0
 38 82  1  0  0  0  0
 39 44  1  0  0  0  0
 39 83  1  0  0  0  0
 39 84  1  0  0  0  0
 40 41  1  0  0  0  0
 40 45  2  0  0  0  0
 40 85  1  0  0  0  0
 41 42  2  0  0  0  0
 41 86  1  0  0  0  0
 42 43  1  0  0  0  0
 42 87  1  0  0  0  0
 43 44  2  0  0  0  0
 43 88  1  0  0  0  0
 44 45  1  0  0  0  0
 45 89  1  0  0  0  0
M  CHG  1  15   1
M  END
>  <PARENT_CMPD_ID>
3CKR

>  <STANDARD_TYPE>
Ki

>  <RELATION>
=

>  <STANDARD_VALUE>
5.0009999

>  <STANDARD_UNITS>
uM

>  <COMPOUND_KEY>
9

>  <PUBMED_ID>
18434152

>  <JOURNAL>
Bioorg.Med.Chem.Lett.

>  <YEAR>
2008

>  <VOLUME>
18

>  <FIRST_PAGE>
2900

>  <Company>
LGLS

>  <Resolution>
2.7

>  <idx>
264

>  <Model>
Test

>  <target>
5.3009434

>  <des_pred_mlr>
6.84202

>  <RF_Canvas>
7.716383

>  <DNN_Canvas>
7.5407662

>  <pred_CoMFA>
7.9165001

>  <pred_COMSIA>
7.8677001

>  <pred_abm5>
7.5846791

>  <pred_ff8>
6.3015847

>  <pred_gau6>
7.9183254

>  <CID>
BACE_264

>  <RF_canvas>
1

>  <DNN_canvas>
1

$$$$
3RTH_5836
  MOE2015           3D

 43 45  0  0  0  0  0  0  0  0999 V2000
   21.4890   12.3840   21.1860 C   0  0  0  0  0  0  0  0  0  0  0  0
   21.6240   13.4480   21.3120 H   0  0  0  0  0  0  0  0  0  0  0  0
   21.9150   11.5240   22.1790 C   0  0  0  0  0  0  0  0  0  0  0  0
   21.7140   10.1540   22.0360 C   0  0  0  0  0  0  0  0  0  0  0  0
   22.6820    9.7490   24.1430 C   0  0  0  0  0  0  0  0  0  0  0  0
   22.5180   12.0120   23.3400 C   0  0  0  0  0  0  0  0  0  0  0  0
   22.6830   13.0720   23.4650 H   0  0  0  0  0  0  0  0  0  0  0  0
   21.2050   14.4100   17.3300 C   0  0  0  0  0  0  0  0  0  0  0  0
   21.9900   14.9260   16.7960 H   0  0  0  0  0  0  0  0  0  0  0  0
   18.8480   13.9790   17.7130 C   0  0  0  0  0  0  0  0  0  0  0  0
   17.8150   14.1780   17.4690 H   0  0  0  0  0  0  0  0  0  0  0  0
   25.3950   12.4420   19.5450 C   0  0  0  0  0  0  0  0  0  0  0  0
   25.4310   10.9320   19.8510 C   0  0  0  0  0  0  0  0  0  0  0  0
   26.4360   10.6490   20.1640 H   0  0  0  0  0  0  0  0  0  0  0  0
   25.1580   10.3730   18.9560 H   0  0  0  0  0  0  0  0  0  0  0  0
   24.7240   10.7060   20.6500 H   0  0  0  0  0  0  0  0  0  0  0  0
   25.7520   13.2060   20.8160 C   0  0  0  0  0  0  0  0  0  0  0  0
   26.7610   12.9380   21.1300 H   0  0  0  0  0  0  0  0  0  0  0  0
   25.0450   12.9490   21.6050 H   0  0  0  0  0  0  0  0  0  0  0  0
   25.7050   14.2770   20.6210 H   0  0  0  0  0  0  0  0  0  0  0  0
   26.3200   12.7810   18.3670 C   0  0  0  0  0  0  0  0  0  0  0  0
   27.3480   12.5280   18.6280 H   0  0  0  0  0  0  0  0  0  0  0  0
   26.2520   13.8460   18.1470 H   0  0  0  0  0  0  0  0  0  0  0  0
   26.0160   12.2090   17.4900 H   0  0  0  0  0  0  0  0  0  0  0  0
   24.0180   12.8110   19.1200 C   0  0  0  0  0  0  0  0  0  0  0  0
   22.8580   13.1420   18.7340 C   0  0  0  0  0  0  0  0  0  0  0  0
   21.5170   13.4880   18.3350 C   0  0  0  0  0  0  0  0  0  0  0  0
   19.8610   14.6540   17.0270 C   0  0  0  0  0  0  0  0  0  0  0  0
   19.6050   15.3680   16.2580 H   0  0  0  0  0  0  0  0  0  0  0  0
   19.1540   13.0500   18.7110 C   0  0  0  0  0  0  0  0  0  0  0  0
   18.3670   12.5270   19.2340 H   0  0  0  0  0  0  0  0  0  0  0  0
   20.5000   12.8080   19.0220 C   0  0  0  0  0  0  0  0  0  0  0  0
   20.8870   11.9030   20.0230 C   0  0  0  0  0  0  0  0  0  0  0  0
   22.9060   11.1160   24.3380 C   0  0  0  0  0  0  0  0  0  0  0  0
   23.3710   11.4720   25.2450 H   0  0  0  0  0  0  0  0  0  0  0  0
   23.0550    8.8790   25.0790 N   0  0  0  0  0  0  0  0  0  0  0  0
   22.9050    7.8900   24.9380 H   0  0  0  0  0  0  0  0  0  0  0  0
   23.4880    9.2080   25.9300 H   0  0  0  0  0  0  0  0  0  0  0  0
   22.1020    9.3000   23.0050 N   0  0  0  0  0  0  0  0  0  0  0  0
   21.1000    9.6740   20.8880 C   0  0  0  0  0  0  0  0  0  0  0  0
   20.9390    8.6120   20.7780 H   0  0  0  0  0  0  0  0  0  0  0  0
   20.6880   10.5370   19.8750 C   0  0  0  0  0  0  0  0  0  0  0  0
   20.2190   10.1470   18.9840 H   0  0  0  0  0  0  0  0  0  0  0  0
  1  2  1  0  0  0  0
  1  3  1  0  0  0  0
  1 33  2  0  0  0  0
  3  4  1  0  0  0  0
  3  6  2  0  0  0  0
  4 39  2  0  0  0  0
  4 40  1  0  0  0  0
  5 34  2  0  0  0  0
  5 36  1  0  0  0  0
  5 39  1  0  0  0  0
  6  7  1  0  0  0  0
  6 34  1  0  0  0  0
  8  9  1  0  0  0  0
  8 27  1  0  0  0  0
  8 28  2  0  0  0  0
 10 11  1  0  0  0  0
 10 28  1  0  0  0  0
 10 30  2  0  0  0  0
 12 13  1  0  0  0  0
 12 17  1  0  0  0  0
 12 21  1  0  0  0  0
 12 25  1  0  0  0  0
 13 14  1  0  0  0  0
 13 15  1  0  0  0  0
 13 16  1  0  0  0  0
 17 18  1  0  0  0  0
 17 19  1  0  0  0  0
 17 20  1  0  0  0  0
 21 22  1  0  0  0  0
 21 23  1  0  0  0  0
 21 24  1  0  0  0  0
 25 26  3  0  0  0  0
 26 27  1  0  0  0  0
 27 32  2  0  0  0  0
 28 29  1  0  0  0  0
 30 31  1  0  0  0  0
 30 32  1  0  0  0  0
 32 33  1  0  0  0  0
 33 42  1  0  0  0  0
 34 35  1  0  0  0  0
 36 37  1  0  0  0  0
 36 38  1  0  0  0  0
 40 41  1  0  0  0  0
 40 42  2  0  0  0  0
 42 43  1  0  0  0  0
M  END
>  <PARENT_CMPD_ID>
3RTH

>  <STANDARD_TYPE>
Kd

>  <RELATION>
=

>  <STANDARD_VALUE>
6.0999999

>  <STANDARD_UNITS>
uM

>  <COMPOUND_KEY>
39

>  <PUBMED_ID>
21707077

>  <JOURNAL>
J.Med.Chem.

>  <YEAR>
2011

>  <VOLUME>
54

>  <FIRST_PAGE>
5836

>  <Company>
Amgen

>  <Resolution>
2.7

>  <idx>
265

>  <Model>
Test

>  <target>
5.2146702

>  <des_pred_mlr>
7.09163

>  <RF_Canvas>
5.1283579

>  <DNN_Canvas>
6.1614199

>  <pred_CoMFA>
6.2111001

>  <pred_COMSIA>
5.9705

>  <pred_abm5>
5.4534883

>  <pred_ff8>
5.2064824

>  <pred_gau6>
5.3878393

>  <CID>
BACE_265

>  <RF_canvas>
0

>  <DNN_canvas>
1

$$$$
3RU1_5836
  MOE2015           3D

 48 50  0  0  0  0  0  0  0  0999 V2000
   20.4230   12.5620   21.1320 C   0  0  0  0  0  0  0  0  0  0  0  0
   20.1200   13.5550   21.4280 H   0  0  0  0  0  0  0  0  0  0  0  0
   20.9490   11.6860   22.0760 C   0  0  0  0  0  0  0  0  0  0  0  0
   21.3380   10.4110   21.6920 C   0  0  0  0  0  0  0  0  0  0  0  0
   22.0000    9.9070   23.8800 C   0  0  0  0  0  0  0  0  0  0  0  0
   21.0900   12.0740   23.4020 C   0  0  0  0  0  0  0  0  0  0  0  0
   20.7880   13.0620   23.7160 H   0  0  0  0  0  0  0  0  0  0  0  0
   20.7190   10.9200   26.6220 C   0  0  0  0  0  0  0  0  0  0  0  0
   20.6750    9.8730   26.3210 H   0  0  0  0  0  0  0  0  0  0  0  0
   21.0120   10.9850   27.6700 H   0  0  0  0  0  0  0  0  0  0  0  0
   17.0230   11.2980   25.7900 C   0  0  0  0  0  0  0  0  0  0  0  0
   16.3780   10.8120   26.5220 H   0  0  0  0  0  0  0  0  0  0  0  0
   17.0420   12.3720   25.9780 H   0  0  0  0  0  0  0  0  0  0  0  0
   16.4430   11.8660   22.0430 C   0  0  0  0  0  0  0  0  0  0  0  0
   15.3670   12.0340   22.0960 H   0  0  0  0  0  0  0  0  0  0  0  0
   16.8880   12.5790   21.3490 H   0  0  0  0  0  0  0  0  0  0  0  0
   16.7040   10.4460   21.5380 C   0  0  0  0  0  0  0  0  0  0  0  0
   17.7760   10.3130   21.3890 H   0  0  0  0  0  0  0  0  0  0  0  0
   16.1860   10.3050   20.5900 H   0  0  0  0  0  0  0  0  0  0  0  0
   16.2080    9.4050   22.5340 C   0  0  0  0  0  0  0  0  0  0  0  0
   16.5110    8.4150   22.1920 H   0  0  0  0  0  0  0  0  0  0  0  0
   15.1200    9.4540   22.5860 H   0  0  0  0  0  0  0  0  0  0  0  0
   17.0510   12.0690   23.4290 C   0  0  0  0  0  0  0  0  0  0  0  0
   16.8340   13.0790   23.7760 H   0  0  0  0  0  0  0  0  0  0  0  0
   18.1300   11.9270   23.3770 H   0  0  0  0  0  0  0  0  0  0  0  0
   16.7850    9.6470   23.9350 C   0  0  0  0  0  0  0  0  0  0  0  0
   17.8680    9.5240   23.9050 H   0  0  0  0  0  0  0  0  0  0  0  0
   16.3560    8.9260   24.6310 H   0  0  0  0  0  0  0  0  0  0  0  0
   16.4510   11.0570   24.4010 C   0  0  0  0  0  0  0  0  0  0  0  0
   15.3680   11.1720   24.4340 H   0  0  0  0  0  0  0  0  0  0  0  0
   18.3860   10.7700   25.9410 N   0  0  0  0  0  0  0  0  0  0  0  0
   18.6010    9.8240   25.6600 H   0  0  0  0  0  0  0  0  0  0  0  0
   19.3320   11.5490   26.4500 C   0  0  0  0  0  0  0  0  0  0  0  0
   19.1290   12.7130   26.7770 O   0  0  0  0  0  0  0  0  0  0  0  0
   21.7590   11.6420   25.7670 C   0  0  0  0  0  0  0  0  0  0  0  0
   22.7590   11.4100   26.1340 H   0  0  0  0  0  0  0  0  0  0  0  0
   21.5930   12.7180   25.8210 H   0  0  0  0  0  0  0  0  0  0  0  0
   21.6250   11.1770   24.3220 C   0  0  0  0  0  0  0  0  0  0  0  0
   20.2870   12.1600   19.8080 C   0  0  0  0  0  0  0  0  0  0  0  0
   19.8770   12.8430   19.0790 H   0  0  0  0  0  0  0  0  0  0  0  0
   20.6760   10.8860   19.4190 C   0  0  0  0  0  0  0  0  0  0  0  0
   20.5730   10.5740   18.3900 H   0  0  0  0  0  0  0  0  0  0  0  0
   21.2000   10.0150   20.3670 C   0  0  0  0  0  0  0  0  0  0  0  0
   21.5030    9.0210   20.0710 H   0  0  0  0  0  0  0  0  0  0  0  0
   21.8510    9.5610   22.5920 N   0  0  0  0  0  0  0  0  0  0  0  0
   22.5210    9.0290   24.7410 N   0  0  0  0  0  0  0  0  0  0  0  0
   22.8000    8.1120   24.4210 H   0  0  0  0  0  0  0  0  0  0  0  0
   22.6360    9.2820   25.7120 H   0  0  0  0  0  0  0  0  0  0  0  0
  1  2  1  0  0  0  0
  1  3  1  0  0  0  0
  1 39  2  0  0  0  0
  3  4  1  0  0  0  0
  3  6  2  0  0  0  0
  4 43  1  0  0  0  0
  4 45  2  0  0  0  0
  5 38  2  0  0  0  0
  5 45  1  0  0  0  0
  5 46  1  0  0  0  0
  6  7  1  0  0  0  0
  6 38  1  0  0  0  0
  8  9  1  0  0  0  0
  8 10  1  0  0  0  0
  8 33  1  0  0  0  0
  8 35  1  0  0  0  0
 11 12  1  0  0  0  0
 11 13  1  0  0  0  0
 11 29  1  0  0  0  0
 11 31  1  0  0  0  0
 14 15  1  0  0  0  0
 14 16  1  0  0  0  0
 14 17  1  0  0  0  0
 14 23  1  0  0  0  0
 17 18  1  0  0  0  0
 17 19  1  0  0  0  0
 17 20  1  0  0  0  0
 20 21  1  0  0  0  0
 20 22  1  0  0  0  0
 20 26  1  0  0  0  0
 23 24  1  0  0  0  0
 23 25  1  0  0  0  0
 23 29  1  0  0  0  0
 26 27  1  0  0  0  0
 26 28  1  0  0  0  0
 26 29  1  0  0  0  0
 29 30  1  0  0  0  0
 31 32  1  0  0  0  0
 31 33  1  0  0  0  0
 33 34  2  0  0  0  0
 35 36  1  0  0  0  0
 35 37  1  0  0  0  0
 35 38  1  0  0  0  0
 39 40  1  0  0  0  0
 39 41  1  0  0  0  0
 41 42  1  0  0  0  0
 41 43  2  0  0  0  0
 43 44  1  0  0  0  0
 46 47  1  0  0  0  0
 46 48  1  0  0  0  0
M  END
>  <PARENT_CMPD_ID>
3RU1

>  <STANDARD_TYPE>
Kd

>  <RELATION>
=

>  <STANDARD_VALUE>
14.2

>  <STANDARD_UNITS>
uM

>  <COMPOUND_KEY>
44

>  <PUBMED_ID>
21707077

>  <JOURNAL>
J.Med.Chem.

>  <YEAR>
2011

>  <VOLUME>
54

>  <FIRST_PAGE>
5836

>  <Company>
Amgen

>  <Resolution>
2.3

>  <idx>
266

>  <Model>
Test

>  <target>
4.8477116

>  <des_pred_mlr>
6.0346899

>  <RF_Canvas>
4.5496192

>  <DNN_Canvas>
5.438024

>  <pred_CoMFA>
5.6332998

>  <pred_COMSIA>
6.1290002

>  <pred_abm5>
6.2020602

>  <pred_ff8>
4.998569

>  <pred_gau6>
6.1111403

>  <CID>
BACE_266

>  <RF_canvas>
0

>  <DNN_canvas>
0

$$$$
3RTM_5836
  MOE2015           3D

 48 50  0  0  0  0  0  0  0  0999 V2000
   21.7480    9.2620   22.8040 N   0  0  0  0  0  0  0  0  0  0  0  0
   24.7020   12.8380   22.0930 N   0  0  0  0  0  0  0  0  0  0  0  0
   20.0600   12.0800   21.2220 C   0  0  0  0  0  0  0  0  0  0  0  0
   19.9890   13.1540   21.3120 H   0  0  0  0  0  0  0  0  0  0  0  0
   20.8830   11.3520   22.0920 C   0  0  0  0  0  0  0  0  0  0  0  0
   20.9660    9.9620   21.9740 C   0  0  0  0  0  0  0  0  0  0  0  0
   22.4660    9.8580   23.7750 C   0  0  0  0  0  0  0  0  0  0  0  0
   22.4370   11.2690   23.9600 C   0  0  0  0  0  0  0  0  0  0  0  0
   23.2110   12.1000   25.0470 C   0  0  0  0  0  0  0  0  0  0  0  0
   23.5900   11.4040   25.7960 H   0  0  0  0  0  0  0  0  0  0  0  0
   22.5040   12.7860   25.5130 H   0  0  0  0  0  0  0  0  0  0  0  0
   24.3130   14.2710   22.0620 C   0  0  0  0  0  0  0  0  0  0  0  0
   24.2720   14.6140   21.0280 H   0  0  0  0  0  0  0  0  0  0  0  0
   25.0480   14.8590   22.6110 H   0  0  0  0  0  0  0  0  0  0  0  0
   23.3330   14.3920   22.5240 H   0  0  0  0  0  0  0  0  0  0  0  0
   23.6730   11.9550   19.9960 C   0  0  0  0  0  0  0  0  0  0  0  0
   22.7530   12.1220   20.5560 H   0  0  0  0  0  0  0  0  0  0  0  0
   23.7940   12.7440   19.2540 H   0  0  0  0  0  0  0  0  0  0  0  0
   25.0260   10.1410   18.7720 C   0  0  0  0  0  0  0  0  0  0  0  0
   25.1440   10.5670   17.7760 H   0  0  0  0  0  0  0  0  0  0  0  0
   25.0230    9.0530   18.7040 H   0  0  0  0  0  0  0  0  0  0  0  0
   23.6340   10.5810   19.3080 C   0  0  0  0  0  0  0  0  0  0  0  0
   22.9370   10.6290   18.4710 H   0  0  0  0  0  0  0  0  0  0  0  0
   23.2870    9.8400   20.0280 H   0  0  0  0  0  0  0  0  0  0  0  0
   26.2710   10.5550   19.6100 C   0  0  0  0  0  0  0  0  0  0  0  0
   27.1530   10.4960   18.9720 H   0  0  0  0  0  0  0  0  0  0  0  0
   26.3760    9.8580   20.4410 H   0  0  0  0  0  0  0  0  0  0  0  0
   26.1730   11.9790   20.1770 C   0  0  0  0  0  0  0  0  0  0  0  0
   26.1320   12.7200   19.3780 H   0  0  0  0  0  0  0  0  0  0  0  0
   27.0130   12.2000   20.8350 H   0  0  0  0  0  0  0  0  0  0  0  0
   24.8740   11.9330   20.9460 C   0  0  0  0  0  0  0  0  0  0  0  0
   24.9340   10.9710   21.4560 H   0  0  0  0  0  0  0  0  0  0  0  0
   24.8140   12.2090   23.2610 C   0  0  0  0  0  0  0  0  0  0  0  0
   25.0850   11.0050   23.3370 O   0  0  0  0  0  0  0  0  0  0  0  0
   24.4110   12.9350   24.5160 C   0  0  0  0  0  0  0  0  0  0  0  0
   25.2270   12.9480   25.2380 H   0  0  0  0  0  0  0  0  0  0  0  0
   24.1060   13.9580   24.2940 H   0  0  0  0  0  0  0  0  0  0  0  0
   21.6180   11.9990   23.0840 C   0  0  0  0  0  0  0  0  0  0  0  0
   21.5570   13.0730   23.1800 H   0  0  0  0  0  0  0  0  0  0  0  0
   19.3290   11.4040   20.2320 C   0  0  0  0  0  0  0  0  0  0  0  0
   18.6960   11.9620   19.5580 H   0  0  0  0  0  0  0  0  0  0  0  0
   19.4150   10.0160   20.1140 C   0  0  0  0  0  0  0  0  0  0  0  0
   18.8490    9.4960   19.3560 H   0  0  0  0  0  0  0  0  0  0  0  0
   20.2400    9.3090   20.9860 C   0  0  0  0  0  0  0  0  0  0  0  0
   20.3160    8.2360   20.8920 H   0  0  0  0  0  0  0  0  0  0  0  0
   23.2040    9.0480   24.5380 N   0  0  0  0  0  0  0  0  0  0  0  0
   23.7710    9.4320   25.2810 H   0  0  0  0  0  0  0  0  0  0  0  0
   23.1950    8.0520   24.3720 H   0  0  0  0  0  0  0  0  0  0  0  0
  1  6  1  0  0  0  0
  1  7  2  0  0  0  0
  2 12  1  0  0  0  0
  2 31  1  0  0  0  0
  2 33  1  0  0  0  0
  3  4  1  0  0  0  0
  3  5  2  0  0  0  0
  3 40  1  0  0  0  0
  5  6  1  0  0  0  0
  5 38  1  0  0  0  0
  6 44  2  0  0  0  0
  7  8  1  0  0  0  0
  7 46  1  0  0  0  0
  8  9  1  0  0  0  0
  8 38  2  0  0  0  0
  9 10  1  0  0  0  0
  9 11  1  0  0  0  0
  9 35  1  0  0  0  0
 12 13  1  0  0  0  0
 12 14  1  0  0  0  0
 12 15  1  0  0  0  0
 16 17  1  0  0  0  0
 16 18  1  0  0  0  0
 16 22  1  0  0  0  0
 16 31  1  0  0  0  0
 19 20  1  0  0  0  0
 19 21  1  0  0  0  0
 19 22  1  0  0  0  0
 19 25  1  0  0  0  0
 22 23  1  0  0  0  0
 22 24  1  0  0  0  0
 25 26  1  0  0  0  0
 25 27  1  0  0  0  0
 25 28  1  0  0  0  0
 28 29  1  0  0  0  0
 28 30  1  0  0  0  0
 28 31  1  0  0  0  0
 31 32  1  0  0  0  0
 33 34  2  0  0  0  0
 33 35  1  0  0  0  0
 35 36  1  0  0  0  0
 35 37  1  0  0  0  0
 38 39  1  0  0  0  0
 40 41  1  0  0  0  0
 40 42  2  0  0  0  0
 42 43  1  0  0  0  0
 42 44  1  0  0  0  0
 44 45  1  0  0  0  0
 46 47  1  0  0  0  0
 46 48  1  0  0  0  0
M  END
>  <PARENT_CMPD_ID>
3RTM

>  <STANDARD_TYPE>
Kd

>  <RELATION>
=

>  <STANDARD_VALUE>
38.400002

>  <STANDARD_UNITS>
uM

>  <COMPOUND_KEY>
40

>  <PUBMED_ID>
21707077

>  <JOURNAL>
J.Med.Chem.

>  <YEAR>
2011

>  <VOLUME>
54

>  <FIRST_PAGE>
5836

>  <Company>
Amgen

>  <Resolution>
2.76

>  <idx>
267

>  <Model>
Test

>  <target>
4.415669

>  <des_pred_mlr>
5.9253998

>  <RF_Canvas>
4.5953126

>  <DNN_Canvas>
5.6449251

>  <pred_CoMFA>
5.5510998

>  <pred_COMSIA>
5.2117

>  <pred_abm5>
4.8673539

>  <pred_ff8>
3.8838143

>  <pred_gau6>
4.875814

>  <CID>
BACE_267

>  <RF_canvas>
0

>  <DNN_canvas>
0

$$$$
3RSX_5836
  MOE2015           3D

 26 28  0  0  0  0  0  0  0  0999 V2000
   21.6940   10.4140   21.7590 C   0  0  0  0  0  0  0  0  0  0  0  0
   22.0160   11.7720   21.8260 C   0  0  0  0  0  0  0  0  0  0  0  0
   21.5760   12.6380   20.8250 C   0  0  0  0  0  0  0  0  0  0  0  0
   21.8110   13.6900   20.8880 H   0  0  0  0  0  0  0  0  0  0  0  0
   20.3710   13.0190   18.7350 C   0  0  0  0  0  0  0  0  0  0  0  0
   19.1110   12.9010   18.2290 C   0  0  0  0  0  0  0  0  0  0  0  0
   18.4440   12.1280   18.5810 H   0  0  0  0  0  0  0  0  0  0  0  0
   21.0630   14.0470   18.2110 C   0  0  0  0  0  0  0  0  0  0  0  0
   22.0700   14.3460   18.4630 H   0  0  0  0  0  0  0  0  0  0  0  0
   22.0900    9.5670   22.7220 N   0  0  0  0  0  0  0  0  0  0  0  0
   22.8120    9.9940   23.7800 C   0  0  0  0  0  0  0  0  0  0  0  0
   22.7650   12.2460   22.9030 C   0  0  0  0  0  0  0  0  0  0  0  0
   23.0280   13.2910   22.9710 H   0  0  0  0  0  0  0  0  0  0  0  0
   23.1700   11.3440   23.8940 C   0  0  0  0  0  0  0  0  0  0  0  0
   23.7520   11.6850   24.7370 H   0  0  0  0  0  0  0  0  0  0  0  0
   23.2010    9.1190   24.7060 N   0  0  0  0  0  0  0  0  0  0  0  0
   23.7550    9.4280   25.4920 H   0  0  0  0  0  0  0  0  0  0  0  0
   22.9420    8.1460   24.6220 H   0  0  0  0  0  0  0  0  0  0  0  0
   20.9350    9.9360   20.6910 C   0  0  0  0  0  0  0  0  0  0  0  0
   20.6810    8.8870   20.6410 H   0  0  0  0  0  0  0  0  0  0  0  0
   20.5010   10.8020   19.6860 C   0  0  0  0  0  0  0  0  0  0  0  0
   19.9080   10.4220   18.8670 H   0  0  0  0  0  0  0  0  0  0  0  0
   20.8310   12.1580   19.7370 C   0  0  0  0  0  0  0  0  0  0  0  0
   18.7190   13.7690   17.2830 C   0  0  0  0  0  0  0  0  0  0  0  0
   17.7670   13.8050   16.7740 H   0  0  0  0  0  0  0  0  0  0  0  0
   20.0320   14.7830   17.0680 S   0  0  0  0  0  0  0  0  0  0  0  0
  1  2  1  0  0  0  0
  1 10  2  0  0  0  0
  1 19  1  0  0  0  0
  2  3  1  0  0  0  0
  2 12  2  0  0  0  0
  3  4  1  0  0  0  0
  3 23  2  0  0  0  0
  5  6  1  0  0  0  0
  5  8  2  0  0  0  0
  5 23  1  0  0  0  0
  6  7  1  0  0  0  0
  6 24  2  0  0  0  0
  8  9  1  0  0  0  0
  8 26  1  0  0  0  0
 10 11  1  0  0  0  0
 11 14  2  0  0  0  0
 11 16  1  0  0  0  0
 12 13  1  0  0  0  0
 12 14  1  0  0  0  0
 14 15  1  0  0  0  0
 16 17  1  0  0  0  0
 16 18  1  0  0  0  0
 19 20  1  0  0  0  0
 19 21  2  0  0  0  0
 21 22  1  0  0  0  0
 21 23  1  0  0  0  0
 24 25  1  0  0  0  0
 24 26  1  0  0  0  0
M  END
>  <PARENT_CMPD_ID>
3RSX

>  <STANDARD_TYPE>
Kd

>  <RELATION>
=

>  <STANDARD_VALUE>
38.799999

>  <STANDARD_UNITS>
uM

>  <COMPOUND_KEY>
32

>  <PUBMED_ID>
21707077

>  <JOURNAL>
J.Med.Chem.

>  <YEAR>
2011

>  <VOLUME>
54

>  <FIRST_PAGE>
5836

>  <Company>
Amgen

>  <Resolution>
2.48

>  <idx>
268

>  <Model>
Test

>  <target>
4.4111681

>  <des_pred_mlr>
5.3450699

>  <RF_Canvas>
3.4396489

>  <DNN_Canvas>
4.0200357

>  <pred_CoMFA>
4.4085002

>  <pred_COMSIA>
4.7136998

>  <pred_abm5>
4.210176

>  <pred_ff8>
5.2167239

>  <pred_gau6>
4.1734529

>  <CID>
BACE_268

>  <RF_canvas>
0

>  <DNN_canvas>
0

$$$$
2ZJN_4488
  MOE2015           3D

 71 73  0  0  0  0  0  0  0  0999 V2000
   24.5350   12.5730   18.2640 C   0  0  0  0  0  0  0  0  0  0  0  0
   26.4800   10.6220   19.9280 C   0  0  0  0  0  0  0  0  0  0  0  0
   26.9410    9.3660   20.3380 C   0  0  0  0  0  0  0  0  0  0  0  0
   26.0510    8.4280   20.8550 C   0  0  0  0  0  0  0  0  0  0  0  0
   24.2390    9.9910   20.5600 C   0  0  0  0  0  0  0  0  0  0  0  0
   22.7660   10.3120   20.7010 C   0  0  0  0  0  0  0  0  0  0  0  0
   20.6140   10.0490   23.7070 C   0  0  0  0  0  0  0  0  0  0  0  0
   21.2770   11.0820   24.6180 C   0  0  0  0  0  0  0  0  0  0  0  0
   18.2660   14.1570   29.9410 C   0  0  0  0  0  0  0  0  0  0  0  0
   19.7380   14.2050   29.6260 C   0  0  0  0  0  0  0  0  0  0  0  0
   20.4360   15.4010   29.7890 C   0  0  0  0  0  0  0  0  0  0  0  0
   21.8010   15.4720   29.5060 C   0  0  0  0  0  0  0  0  0  0  0  0
   22.4650   14.3310   29.0510 C   0  0  0  0  0  0  0  0  0  0  0  0
   21.7660   13.1360   28.8900 C   0  0  0  0  0  0  0  0  0  0  0  0
   20.3980   13.0700   29.1730 C   0  0  0  0  0  0  0  0  0  0  0  0
   20.1090   10.8120   28.1960 C   0  0  0  0  0  0  0  0  0  0  0  0
   20.0430   11.1530   26.7290 C   0  0  0  0  0  0  0  0  0  0  0  0
   26.6360    6.8170   21.3830 Cl  0  0  0  0  0  0  0  0  0  0  0  0
   27.3460   11.5620   19.4180 O   0  0  0  0  0  0  0  0  0  0  0  0
   28.5120   11.2000   18.6790 C   0  0  0  0  0  0  0  0  0  0  0  0
   25.1280   10.9310   20.0370 C   0  0  0  0  0  0  0  0  0  0  0  0
   24.6660   12.1700   19.6390 O   0  0  0  0  0  0  0  0  0  0  0  0
   23.3910   13.5710   18.1330 C   0  0  0  0  0  0  0  0  0  0  0  0
   24.3220   11.3920   17.3190 C   0  0  0  0  0  0  0  0  0  0  0  0
   24.7010    8.7410   20.9670 C   0  0  0  0  0  0  0  0  0  0  0  0
   22.3880   10.3000   22.1110 N   0  3  0  0  0  0  0  0  0  0  0  0
   20.9320   10.3180   22.2340 C   0  0  0  0  0  0  0  0  0  0  0  0
   22.9850   11.4330   22.8210 C   0  0  0  0  0  0  0  0  0  0  0  0
   22.7690   11.1600   24.3090 C   0  0  0  0  0  0  0  0  0  0  0  0
   21.0800   10.7270   26.0090 N   0  0  0  0  0  0  0  0  0  0  0  0
   19.0900   11.7690   26.2750 O   0  0  0  0  0  0  0  0  0  0  0  0
   19.6870   11.9030   29.0190 O   0  0  0  0  0  0  0  0  0  0  0  0
   22.5750   16.8600   29.7030 S   0  0  0  0  0  0  0  0  0  0  0  0
   22.2450   17.4030   30.9890 O   0  0  0  0  0  0  0  0  0  0  0  0
   24.0020   16.6810   29.6180 O   0  0  0  0  0  0  0  0  0  0  0  0
   22.1060   17.8740   28.5570 N   0  0  0  0  0  0  0  0  0  0  0  0
   25.4740   13.0410   17.9690 H   0  0  0  0  0  0  0  0  0  0  0  0
   27.9900    9.1230   20.2530 H   0  0  0  0  0  0  0  0  0  0  0  0
   22.1800    9.5660   20.1630 H   0  0  0  0  0  0  0  0  0  0  0  0
   22.5690   11.2990   20.2820 H   0  0  0  0  0  0  0  0  0  0  0  0
   19.5340   10.0910   23.8500 H   0  0  0  0  0  0  0  0  0  0  0  0
   20.9780    9.0560   23.9730 H   0  0  0  0  0  0  0  0  0  0  0  0
   20.8200   12.0550   24.4370 H   0  0  0  0  0  0  0  0  0  0  0  0
   17.9350   15.1390   30.2790 H   0  0  0  0  0  0  0  0  0  0  0  0
   18.0860   13.4220   30.7260 H   0  0  0  0  0  0  0  0  0  0  0  0
   17.7120   13.8750   29.0460 H   0  0  0  0  0  0  0  0  0  0  0  0
   19.9160   16.2810   30.1380 H   0  0  0  0  0  0  0  0  0  0  0  0
   23.5200   14.3740   28.8240 H   0  0  0  0  0  0  0  0  0  0  0  0
   22.2850   12.2540   28.5440 H   0  0  0  0  0  0  0  0  0  0  0  0
   21.1370   10.5550   28.4520 H   0  0  0  0  0  0  0  0  0  0  0  0
   19.4620    9.9560   28.3880 H   0  0  0  0  0  0  0  0  0  0  0  0
   29.0440   12.1020   18.3760 H   0  0  0  0  0  0  0  0  0  0  0  0
   28.2200   10.6350   17.7940 H   0  0  0  0  0  0  0  0  0  0  0  0
   29.1620   10.5870   19.3030 H   0  0  0  0  0  0  0  0  0  0  0  0
   22.4570   13.0940   18.4300 H   0  0  0  0  0  0  0  0  0  0  0  0
   23.3160   13.9040   17.0980 H   0  0  0  0  0  0  0  0  0  0  0  0
   23.5820   14.4290   18.7780 H   0  0  0  0  0  0  0  0  0  0  0  0
   23.3900   10.8870   17.5730 H   0  0  0  0  0  0  0  0  0  0  0  0
   25.1530   10.6930   17.4180 H   0  0  0  0  0  0  0  0  0  0  0  0
   24.2710   11.7530   16.2920 H   0  0  0  0  0  0  0  0  0  0  0  0
   24.0100    8.0150   21.3700 H   0  0  0  0  0  0  0  0  0  0  0  0
   22.7400    9.4530   22.5340 H   0  0  0  0  0  0  0  0  0  0  0  0
   20.5410   11.2910   21.9370 H   0  0  0  0  0  0  0  0  0  0  0  0
   20.4920    9.5430   21.6070 H   0  0  0  0  0  0  0  0  0  0  0  0
   22.4940   12.3620   22.5310 H   0  0  0  0  0  0  0  0  0  0  0  0
   24.0500   11.5000   22.5990 H   0  0  0  0  0  0  0  0  0  0  0  0
   23.2420   10.2140   24.5740 H   0  0  0  0  0  0  0  0  0  0  0  0
   23.2160   11.9660   24.8920 H   0  0  0  0  0  0  0  0  0  0  0  0
   21.7610   10.1280   26.4540 H   0  0  0  0  0  0  0  0  0  0  0  0
   21.1060   18.0040   28.6110 H   0  0  0  0  0  0  0  0  0  0  0  0
   22.3480   17.4950   27.6530 H   0  0  0  0  0  0  0  0  0  0  0  0
  1 22  1  0  0  0  0
  1 23  1  0  0  0  0
  1 24  1  0  0  0  0
  1 37  1  0  0  0  0
  2  3  2  0  0  0  0
  2 19  1  0  0  0  0
  2 21  1  0  0  0  0
  3  4  1  0  0  0  0
  3 38  1  0  0  0  0
  4 18  1  0  0  0  0
  4 25  2  0  0  0  0
  5  6  1  0  0  0  0
  5 21  2  0  0  0  0
  5 25  1  0  0  0  0
  6 26  1  0  0  0  0
  6 39  1  0  0  0  0
  6 40  1  0  0  0  0
  7  8  1  0  0  0  0
  7 27  1  0  0  0  0
  7 41  1  0  0  0  0
  7 42  1  0  0  0  0
  8 29  1  0  0  0  0
  8 30  1  0  0  0  0
  8 43  1  0  0  0  0
  9 10  1  0  0  0  0
  9 44  1  0  0  0  0
  9 45  1  0  0  0  0
  9 46  1  0  0  0  0
 10 11  1  0  0  0  0
 10 15  2  0  0  0  0
 11 12  2  0  0  0  0
 11 47  1  0  0  0  0
 12 13  1  0  0  0  0
 12 33  1  0  0  0  0
 13 14  2  0  0  0  0
 13 48  1  0  0  0  0
 14 15  1  0  0  0  0
 14 49  1  0  0  0  0
 15 32  1  0  0  0  0
 16 17  1  0  0  0  0
 16 32  1  0  0  0  0
 16 50  1  0  0  0  0
 16 51  1  0  0  0  0
 17 30  1  0  0  0  0
 17 31  2  0  0  0  0
 19 20  1  0  0  0  0
 20 52  1  0  0  0  0
 20 53  1  0  0  0  0
 20 54  1  0  0  0  0
 21 22  1  0  0  0  0
 23 55  1  0  0  0  0
 23 56  1  0  0  0  0
 23 57  1  0  0  0  0
 24 58  1  0  0  0  0
 24 59  1  0  0  0  0
 24 60  1  0  0  0  0
 25 61  1  0  0  0  0
 26 27  1  0  0  0  0
 26 28  1  0  0  0  0
 26 62  1  0  0  0  0
 27 63  1  0  0  0  0
 27 64  1  0  0  0  0
 28 29  1  0  0  0  0
 28 65  1  0  0  0  0
 28 66  1  0  0  0  0
 29 67  1  0  0  0  0
 29 68  1  0  0  0  0
 30 69  1  0  0  0  0
 33 34  2  0  0  0  0
 33 35  2  0  0  0  0
 33 36  1  0  0  0  0
 36 70  1  0  0  0  0
 36 71  1  0  0  0  0
M  CHG  1  26   1
M  END
>  <PARENT_CMPD_ID>
2ZJN

>  <STANDARD_TYPE>
Ki

>  <RELATION>
=

>  <STANDARD_VALUE>
74

>  <STANDARD_UNITS>
uM

>  <COMPOUND_KEY>
14

>  <PUBMED_ID>
19284778

>  <JOURNAL>
Biochemistry

>  <YEAR>
2009

>  <VOLUME>
48

>  <FIRST_PAGE>
4488

>  <Company>
Sunesis

>  <Resolution>
2.7

>  <idx>
269

>  <Model>
Test

>  <target>
4.1307683

>  <des_pred_mlr>
7.4998002

>  <RF_Canvas>
6.990191

>  <DNN_Canvas>
6.3352871

>  <pred_CoMFA>
4.9130998

>  <pred_COMSIA>
6.4956002

>  <pred_abm5>
4.8027534

>  <pred_ff8>
5.0058942

>  <pred_gau6>
5.1756353

>  <CID>
BACE_269

>  <RF_canvas>
1

>  <DNN_canvas>
0

$$$$
2ZJM_4488
  MOE2015           3D

 68 70  0  0  0  0  0  0  0  0999 V2000
   25.5320   10.7150   20.1330 C   0  0  0  0  0  0  0  0  0  0  0  0
   26.9170   10.3860   20.1700 C   0  0  0  0  0  0  0  0  0  0  0  0
   23.1160   10.1820   20.8400 C   0  0  0  0  0  0  0  0  0  0  0  0
   20.1950   11.2580   26.8850 C   0  0  0  0  0  0  0  0  0  0  0  0
   24.9660    8.5240   21.0350 C   0  0  0  0  0  0  0  0  0  0  0  0
   26.3190    8.2050   21.0370 C   0  0  0  0  0  0  0  0  0  0  0  0
   23.5560   10.9370   23.2410 C   0  0  0  0  0  0  0  0  0  0  0  0
   21.2870   10.4350   22.5280 C   0  0  0  0  0  0  0  0  0  0  0  0
   19.4000   15.3550   29.9860 C   0  0  0  0  0  0  0  0  0  0  0  0
   20.8410   10.1880   23.9920 C   0  0  0  0  0  0  0  0  0  0  0  0
   21.7180   11.0160   24.9530 C   0  0  0  0  0  0  0  0  0  0  0  0
   19.9820   10.8190   28.3130 C   0  0  0  0  0  0  0  0  0  0  0  0
   25.2710   11.7380   18.0310 C   0  0  0  0  0  0  0  0  0  0  0  0
   24.4580   12.8200   17.3700 C   0  0  0  0  0  0  0  0  0  0  0  0
   21.4380   17.2310   30.0200 S   0  0  0  0  0  0  0  0  0  0  0  0
   24.5630    9.8160   20.6560 C   0  0  0  0  0  0  0  0  0  0  0  0
   22.7150   10.1280   22.3010 N   0  3  0  0  0  0  0  0  0  0  0  0
   20.7650   15.6260   29.7760 C   0  0  0  0  0  0  0  0  0  0  0  0
   27.2870    9.1180   20.6600 C   0  0  0  0  0  0  0  0  0  0  0  0
   21.2480   17.5830   31.3920 O   0  0  0  0  0  0  0  0  0  0  0  0
   22.7510   17.3180   29.4370 O   0  0  0  0  0  0  0  0  0  0  0  0
   25.0870   11.8440   19.4550 O   0  0  0  0  0  0  0  0  0  0  0  0
   21.3430   10.7760   26.3680 N   0  0  0  0  0  0  0  0  0  0  0  0
   20.3590   18.2700   29.1310 N   0  0  0  0  0  0  0  0  0  0  0  0
   19.3960   11.9710   26.3030 O   0  0  0  0  0  0  0  0  0  0  0  0
   21.6520   14.6380   29.3690 C   0  0  0  0  0  0  0  0  0  0  0  0
   23.1970   10.6520   24.7110 C   0  0  0  0  0  0  0  0  0  0  0  0
   19.2310   11.7930   29.0220 O   0  0  0  0  0  0  0  0  0  0  0  0
   19.8030   13.0420   29.3010 C   0  0  0  0  0  0  0  0  0  0  0  0
   27.7870   11.3670   19.6800 O   0  0  0  0  0  0  0  0  0  0  0  0
   26.7750    6.7100   21.6370 Cl  0  0  0  0  0  0  0  0  0  0  0  0
   18.9220   14.0530   29.7500 C   0  0  0  0  0  0  0  0  0  0  0  0
   21.1800   13.3480   29.1340 C   0  0  0  0  0  0  0  0  0  0  0  0
   29.1130   10.9900   19.3420 C   0  0  0  0  0  0  0  0  0  0  0  0
   24.8190   10.4220   17.3080 C   0  0  0  0  0  0  0  0  0  0  0  0
   22.4990    9.4830   20.2760 H   0  0  0  0  0  0  0  0  0  0  0  0
   22.9550   11.1930   20.4650 H   0  0  0  0  0  0  0  0  0  0  0  0
   24.2310    7.7860   21.3220 H   0  0  0  0  0  0  0  0  0  0  0  0
   23.3960   11.9960   23.0370 H   0  0  0  0  0  0  0  0  0  0  0  0
   24.6050   10.6900   23.0790 H   0  0  0  0  0  0  0  0  0  0  0  0
   21.1140   11.4830   22.2840 H   0  0  0  0  0  0  0  0  0  0  0  0
   20.6870    9.8050   21.8710 H   0  0  0  0  0  0  0  0  0  0  0  0
   18.7310   16.1330   30.3230 H   0  0  0  0  0  0  0  0  0  0  0  0
   20.9460    9.1290   24.2280 H   0  0  0  0  0  0  0  0  0  0  0  0
   19.7980   10.4850   24.1070 H   0  0  0  0  0  0  0  0  0  0  0  0
   21.5620   12.0770   24.7560 H   0  0  0  0  0  0  0  0  0  0  0  0
   20.9500   10.6890   28.7970 H   0  0  0  0  0  0  0  0  0  0  0  0
   19.4420    9.8720   28.3210 H   0  0  0  0  0  0  0  0  0  0  0  0
   26.3550   11.7920   17.9300 H   0  0  0  0  0  0  0  0  0  0  0  0
   23.3980   12.6410   17.5520 H   0  0  0  0  0  0  0  0  0  0  0  0
   24.6480   12.8130   16.2970 H   0  0  0  0  0  0  0  0  0  0  0  0
   24.7390   13.7890   17.7830 H   0  0  0  0  0  0  0  0  0  0  0  0
   22.8890    9.1590   22.5270 H   0  0  0  0  0  0  0  0  0  0  0  0
   28.3320    8.8580   20.7420 H   0  0  0  0  0  0  0  0  0  0  0  0
   21.9620   10.2390   26.9580 H   0  0  0  0  0  0  0  0  0  0  0  0
   19.4340   18.2170   29.5320 H   0  0  0  0  0  0  0  0  0  0  0  0
   20.3250   17.9740   28.1660 H   0  0  0  0  0  0  0  0  0  0  0  0
   22.6990   14.8670   29.2360 H   0  0  0  0  0  0  0  0  0  0  0  0
   23.8310   11.2520   25.3640 H   0  0  0  0  0  0  0  0  0  0  0  0
   23.3520    9.5950   24.9250 H   0  0  0  0  0  0  0  0  0  0  0  0
   17.8790   13.8250   29.9120 H   0  0  0  0  0  0  0  0  0  0  0  0
   21.8670   12.5750   28.8220 H   0  0  0  0  0  0  0  0  0  0  0  0
   29.6570   11.8620   18.9790 H   0  0  0  0  0  0  0  0  0  0  0  0
   29.0870   10.2280   18.5630 H   0  0  0  0  0  0  0  0  0  0  0  0
   29.6130   10.5910   20.2240 H   0  0  0  0  0  0  0  0  0  0  0  0
   23.7360   10.3210   17.3810 H   0  0  0  0  0  0  0  0  0  0  0  0
   25.2970    9.5650   17.7820 H   0  0  0  0  0  0  0  0  0  0  0  0
   25.1100   10.4660   16.2580 H   0  0  0  0  0  0  0  0  0  0  0  0
  1  2  1  0  0  0  0
  1 16  2  0  0  0  0
  1 22  1  0  0  0  0
  2 19  2  0  0  0  0
  2 30  1  0  0  0  0
  3 16  1  0  0  0  0
  3 17  1  0  0  0  0
  3 36  1  0  0  0  0
  3 37  1  0  0  0  0
  4 12  1  0  0  0  0
  4 23  1  0  0  0  0
  4 25  2  0  0  0  0
  5  6  2  0  0  0  0
  5 16  1  0  0  0  0
  5 38  1  0  0  0  0
  6 19  1  0  0  0  0
  6 31  1  0  0  0  0
  7 17  1  0  0  0  0
  7 27  1  0  0  0  0
  7 39  1  0  0  0  0
  7 40  1  0  0  0  0
  8 10  1  0  0  0  0
  8 17  1  0  0  0  0
  8 41  1  0  0  0  0
  8 42  1  0  0  0  0
  9 18  2  0  0  0  0
  9 32  1  0  0  0  0
  9 43  1  0  0  0  0
 10 11  1  0  0  0  0
 10 44  1  0  0  0  0
 10 45  1  0  0  0  0
 11 23  1  0  0  0  0
 11 27  1  0  0  0  0
 11 46  1  0  0  0  0
 12 28  1  0  0  0  0
 12 47  1  0  0  0  0
 12 48  1  0  0  0  0
 13 14  1  0  0  0  0
 13 22  1  0  0  0  0
 13 35  1  0  0  0  0
 13 49  1  0  0  0  0
 14 50  1  0  0  0  0
 14 51  1  0  0  0  0
 14 52  1  0  0  0  0
 15 18  1  0  0  0  0
 15 20  2  0  0  0  0
 15 21  2  0  0  0  0
 15 24  1  0  0  0  0
 17 53  1  0  0  0  0
 18 26  1  0  0  0  0
 19 54  1  0  0  0  0
 23 55  1  0  0  0  0
 24 56  1  0  0  0  0
 24 57  1  0  0  0  0
 26 33  2  0  0  0  0
 26 58  1  0  0  0  0
 27 59  1  0  0  0  0
 27 60  1  0  0  0  0
 28 29  1  0  0  0  0
 29 32  2  0  0  0  0
 29 33  1  0  0  0  0
 30 34  1  0  0  0  0
 32 61  1  0  0  0  0
 33 62  1  0  0  0  0
 34 63  1  0  0  0  0
 34 64  1  0  0  0  0
 34 65  1  0  0  0  0
 35 66  1  0  0  0  0
 35 67  1  0  0  0  0
 35 68  1  0  0  0  0
M  CHG  1  17   1
M  END
>  <PARENT_CMPD_ID>
2ZJM

>  <STANDARD_TYPE>
Ki

>  <RELATION>
=

>  <STANDARD_VALUE>
170

>  <STANDARD_UNITS>
uM

>  <COMPOUND_KEY>
13

>  <PUBMED_ID>
19284778

>  <JOURNAL>
Biochemistry

>  <YEAR>
2009

>  <VOLUME>
48

>  <FIRST_PAGE>
4488

>  <Company>
Sunesis

>  <Resolution>
1.9

>  <idx>
270

>  <Model>
Test

>  <target>
3.769551

>  <des_pred_mlr>
7.4425802

>  <RF_Canvas>
6.8396688

>  <DNN_Canvas>
6.1215739

>  <pred_CoMFA>
4.4454999

>  <pred_COMSIA>
6.1423001

>  <pred_abm5>
4.6250277

>  <pred_ff8>
4.3288302

>  <pred_gau6>
4.9623575

>  <CID>
BACE_270

>  <RF_canvas>
0

>  <DNN_canvas>
0

$$$$
3BUH_1304
  MOE2015           3D

 38 39  0  0  0  0  0  0  0  0999 V2000
   25.8570   11.8690   18.0810 C   0  0  0  0  0  0  0  0  0  0  0  0
   28.1100   12.9810   20.4020 C   0  0  0  0  0  0  0  0  0  0  0  0
   28.6460   10.4650   20.0710 C   0  0  0  0  0  0  0  0  0  0  0  0
   24.3450   10.5500   20.0130 C   0  0  0  0  0  0  0  0  0  0  0  0
   24.4990   11.6300   17.8390 C   0  0  0  0  0  0  0  0  0  0  0  0
   29.5620   13.1760   20.8480 C   0  0  0  0  0  0  0  0  0  0  0  0
   23.5410    9.8280   21.0700 C   0  0  0  0  0  0  0  0  0  0  0  0
   22.1780   10.4840   21.3380 C   0  0  0  0  0  0  0  0  0  0  0  0
   26.5760   12.5240   17.1130 O   0  0  0  0  0  0  0  0  0  0  0  0
   23.7500   10.9640   18.8120 C   0  0  0  0  0  0  0  0  0  0  0  0
   21.4410    9.7910   22.4220 N   0  3  0  0  0  0  0  0  0  0  0  0
   25.7060   10.8020   20.2360 C   0  0  0  0  0  0  0  0  0  0  0  0
   26.4790   11.4630   19.2740 C   0  0  0  0  0  0  0  0  0  0  0  0
   27.9490   11.7300   19.5150 C   0  0  0  0  0  0  0  0  0  0  0  0
   29.9620   11.9650   21.6940 C   0  0  0  0  0  0  0  0  0  0  0  0
   29.9680   10.7020   20.8210 C   0  0  0  0  0  0  0  0  0  0  0  0
   27.7930   13.8580   19.8370 H   0  0  0  0  0  0  0  0  0  0  0  0
   27.4810   12.8710   21.2850 H   0  0  0  0  0  0  0  0  0  0  0  0
   28.8520    9.8010   19.2320 H   0  0  0  0  0  0  0  0  0  0  0  0
   27.9550    9.9770   20.7580 H   0  0  0  0  0  0  0  0  0  0  0  0
   24.0390   11.9540   16.9170 H   0  0  0  0  0  0  0  0  0  0  0  0
   29.6480   14.0870   21.4410 H   0  0  0  0  0  0  0  0  0  0  0  0
   30.2110   13.2480   19.9750 H   0  0  0  0  0  0  0  0  0  0  0  0
   24.1130    9.8230   21.9980 H   0  0  0  0  0  0  0  0  0  0  0  0
   23.3740    8.8030   20.7400 H   0  0  0  0  0  0  0  0  0  0  0  0
   21.5820   10.4470   20.4260 H   0  0  0  0  0  0  0  0  0  0  0  0
   22.3360   11.5230   21.6270 H   0  0  0  0  0  0  0  0  0  0  0  0
   27.5010   12.6690   17.3230 H   0  0  0  0  0  0  0  0  0  0  0  0
   22.7030   10.7660   18.6380 H   0  0  0  0  0  0  0  0  0  0  0  0
   21.2900    8.8270   22.1630 H   0  0  0  0  0  0  0  0  0  0  0  0
   20.5500   10.2450   22.5670 H   0  0  0  0  0  0  0  0  0  0  0  0
   21.9810    9.8300   23.2750 H   0  0  0  0  0  0  0  0  0  0  0  0
   26.1630   10.4820   21.1610 H   0  0  0  0  0  0  0  0  0  0  0  0
   28.4540   11.9510   18.5750 H   0  0  0  0  0  0  0  0  0  0  0  0
   29.2470   11.8400   22.5070 H   0  0  0  0  0  0  0  0  0  0  0  0
   30.9580   12.1250   22.1070 H   0  0  0  0  0  0  0  0  0  0  0  0
   30.7690   10.7940   20.0870 H   0  0  0  0  0  0  0  0  0  0  0  0
   30.1600    9.8410   21.4620 H   0  0  0  0  0  0  0  0  0  0  0  0
  1  5  2  0  0  0  0
  1  9  1  0  0  0  0
  1 13  1  0  0  0  0
  2  6  1  0  0  0  0
  2 14  1  0  0  0  0
  2 17  1  0  0  0  0
  2 18  1  0  0  0  0
  3 14  1  0  0  0  0
  3 16  1  0  0  0  0
  3 19  1  0  0  0  0
  3 20  1  0  0  0  0
  4  7  1  0  0  0  0
  4 10  2  0  0  0  0
  4 12  1  0  0  0  0
  5 10  1  0  0  0  0
  5 21  1  0  0  0  0
  6 15  1  0  0  0  0
  6 22  1  0  0  0  0
  6 23  1  0  0  0  0
  7  8  1  0  0  0  0
  7 24  1  0  0  0  0
  7 25  1  0  0  0  0
  8 11  1  0  0  0  0
  8 26  1  0  0  0  0
  8 27  1  0  0  0  0
  9 28  1  0  0  0  0
 10 29  1  0  0  0  0
 11 30  1  0  0  0  0
 11 31  1  0  0  0  0
 11 32  1  0  0  0  0
 12 13  2  0  0  0  0
 12 33  1  0  0  0  0
 13 14  1  0  0  0  0
 14 34  1  0  0  0  0
 15 16  1  0  0  0  0
 15 35  1  0  0  0  0
 15 36  1  0  0  0  0
 16 37  1  0  0  0  0
 16 38  1  0  0  0  0
M  CHG  1  11   1
M  END
>  <PARENT_CMPD_ID>
3BUH

>  <STANDARD_TYPE>
Kd

>  <RELATION>
=

>  <STANDARD_VALUE>
220

>  <STANDARD_UNITS>
uM

>  <COMPOUND_KEY>
4

>  <PUBMED_ID>
18226904

>  <JOURNAL>
Bioorg.Med.Chem.Lett.

>  <YEAR>
2008

>  <VOLUME>
18

>  <FIRST_PAGE>
1304

>  <Company>
Roche

>  <Resolution>
2.3

>  <idx>
271

>  <Model>
Test

>  <target>
3.6575773

>  <des_pred_mlr>
4.8706398

>  <RF_Canvas>
3.3288352

>  <DNN_Canvas>
3.1412487

>  <pred_CoMFA>
3.7065001

>  <pred_COMSIA>
4.6605

>  <pred_abm5>
3.9708366

>  <pred_ff8>
3.8270042

>  <pred_gau6>
3.425797

>  <CID>
BACE_271

>  <RF_canvas>
0

>  <DNN_canvas>
0

$$$$
3BUG_1304
  MOE2015           3D

 28 28  0  0  0  0  0  0  0  0999 V2000
   28.1340   11.9270   19.4110 C   0  0  0  0  0  0  0  0  0  0  0  0
   24.6630   10.6110   20.2830 C   0  0  0  0  0  0  0  0  0  0  0  0
   24.6300   11.3880   17.9860 C   0  0  0  0  0  0  0  0  0  0  0  0
   29.0700   10.7330   19.6380 C   0  0  0  0  0  0  0  0  0  0  0  0
   23.9450    9.9960   21.4540 C   0  0  0  0  0  0  0  0  0  0  0  0
   21.7180   10.1810   22.5600 N   0  3  0  0  0  0  0  0  0  0  0  0
   26.6000   12.2910   17.0300 O   0  0  0  0  0  0  0  0  0  0  0  0
   25.9720   11.7340   18.1160 C   0  0  0  0  0  0  0  0  0  0  0  0
   23.9760   10.8220   19.0790 C   0  0  0  0  0  0  0  0  0  0  0  0
   22.9040   10.9580   22.0400 C   0  0  0  0  0  0  0  0  0  0  0  0
   26.0150   10.9630   20.4000 C   0  0  0  0  0  0  0  0  0  0  0  0
   26.6830   11.5300   19.3110 C   0  0  0  0  0  0  0  0  0  0  0  0
   28.4230   12.4230   18.4840 H   0  0  0  0  0  0  0  0  0  0  0  0
   28.2470   12.6200   20.2450 H   0  0  0  0  0  0  0  0  0  0  0  0
   24.1060   11.5550   17.0570 H   0  0  0  0  0  0  0  0  0  0  0  0
   28.9680   10.0290   18.8120 H   0  0  0  0  0  0  0  0  0  0  0  0
   28.8060   10.2370   20.5720 H   0  0  0  0  0  0  0  0  0  0  0  0
   30.1000   11.0840   19.6920 H   0  0  0  0  0  0  0  0  0  0  0  0
   24.6730    9.7480   22.2260 H   0  0  0  0  0  0  0  0  0  0  0  0
   23.4420    9.0870   21.1240 H   0  0  0  0  0  0  0  0  0  0  0  0
   21.0380   10.8220   22.9440 H   0  0  0  0  0  0  0  0  0  0  0  0
   22.0230    9.5430   23.2810 H   0  0  0  0  0  0  0  0  0  0  0  0
   21.2990    9.6590   21.8030 H   0  0  0  0  0  0  0  0  0  0  0  0
   27.5240   12.5140   17.1660 H   0  0  0  0  0  0  0  0  0  0  0  0
   22.9350   10.5450   18.9980 H   0  0  0  0  0  0  0  0  0  0  0  0
   22.5720   11.6470   21.2640 H   0  0  0  0  0  0  0  0  0  0  0  0
   23.3530   11.5210   22.8580 H   0  0  0  0  0  0  0  0  0  0  0  0
   26.5390   10.7960   21.3290 H   0  0  0  0  0  0  0  0  0  0  0  0
  1  4  1  0  0  0  0
  1 12  1  0  0  0  0
  1 13  1  0  0  0  0
  1 14  1  0  0  0  0
  2  5  1  0  0  0  0
  2  9  2  0  0  0  0
  2 11  1  0  0  0  0
  3  8  2  0  0  0  0
  3  9  1  0  0  0  0
  3 15  1  0  0  0  0
  4 16  1  0  0  0  0
  4 17  1  0  0  0  0
  4 18  1  0  0  0  0
  5 10  1  0  0  0  0
  5 19  1  0  0  0  0
  5 20  1  0  0  0  0
  6 10  1  0  0  0  0
  6 21  1  0  0  0  0
  6 22  1  0  0  0  0
  6 23  1  0  0  0  0
  7  8  1  0  0  0  0
  7 24  1  0  0  0  0
  8 12  1  0  0  0  0
  9 25  1  0  0  0  0
 10 26  1  0  0  0  0
 10 27  1  0  0  0  0
 11 12  2  0  0  0  0
 11 28  1  0  0  0  0
M  CHG  1   6   1
M  END
>  <PARENT_CMPD_ID>
3BUG

>  <STANDARD_TYPE>
Kd

>  <RELATION>
=

>  <STANDARD_VALUE>
660

>  <STANDARD_UNITS>
uM

>  <COMPOUND_KEY>
3

>  <PUBMED_ID>
18226904

>  <JOURNAL>
Bioorg.Med.Chem.Lett.

>  <YEAR>
2008

>  <VOLUME>
18

>  <FIRST_PAGE>
1304

>  <Company>
Roche

>  <Resolution>
2.5

>  <idx>
272

>  <Model>
Test

>  <target>
3.1804562

>  <des_pred_mlr>
3.05949

>  <RF_Canvas>
3.1438172

>  <DNN_Canvas>
3.4280953

>  <pred_CoMFA>
3.4979999

>  <pred_COMSIA>
4.0583

>  <pred_abm5>
3.7726662

>  <pred_ff8>
3.785347

>  <pred_gau6>
3.0078988

>  <CID>
BACE_272

>  <RF_canvas>
0

>  <DNN_canvas>
0

$$$$
3BUF_1304
  MOE2015           3D

 25 25  0  0  1  0  0  0  0  0999 V2000
   23.1740   11.7580   20.9560 C   0  0  0  0  0  0  0  0  0  0  0  0
   24.5110   12.2140   17.4240 C   0  0  0  0  0  0  0  0  0  0  0  0
   26.1380   13.1420   19.0050 C   0  0  0  0  0  0  0  0  0  0  0  0
   23.0430   10.2490   21.1940 C   0  0  3  0  0  0  0  0  0  0  0  0
   25.7240   12.8520   17.6990 C   0  0  0  0  0  0  0  0  0  0  0  0
   26.5250   13.2030   16.6500 O   0  0  0  0  0  0  0  0  0  0  0  0
   25.2990   12.7770   20.0610 C   0  0  0  0  0  0  0  0  0  0  0  0
   23.6890   11.8580   18.4920 C   0  0  0  0  0  0  0  0  0  0  0  0
   24.0790   12.1330   19.8060 C   0  0  0  0  0  0  0  0  0  0  0  0
   21.9070    9.9650   22.1560 N   0  3  0  0  0  0  0  0  0  0  0  0
   24.3560    9.6740   21.7340 C   0  0  0  0  0  0  0  0  0  0  0  0
   23.5700   12.2130   21.8640 H   0  0  0  0  0  0  0  0  0  0  0  0
   22.1810   12.1580   20.7530 H   0  0  0  0  0  0  0  0  0  0  0  0
   24.2170   12.0020   16.4070 H   0  0  0  0  0  0  0  0  0  0  0  0
   27.0810   13.6350   19.1910 H   0  0  0  0  0  0  0  0  0  0  0  0
   22.8220    9.7670   20.2420 H   0  0  0  0  0  0  0  0  0  0  0  0
   27.3450   13.6400   16.8940 H   0  0  0  0  0  0  0  0  0  0  0  0
   25.5910   12.9920   21.0780 H   0  0  0  0  0  0  0  0  0  0  0  0
   22.7460   11.3670   18.3030 H   0  0  0  0  0  0  0  0  0  0  0  0
   22.0990   10.4070   23.0440 H   0  0  0  0  0  0  0  0  0  0  0  0
   21.8190    8.9680   22.2880 H   0  0  0  0  0  0  0  0  0  0  0  0
   21.0450   10.3310   21.7770 H   0  0  0  0  0  0  0  0  0  0  0  0
   24.5940   10.1450   22.6880 H   0  0  0  0  0  0  0  0  0  0  0  0
   25.1580    9.8690   21.0220 H   0  0  0  0  0  0  0  0  0  0  0  0
   24.2500    8.5990   21.8760 H   0  0  0  0  0  0  0  0  0  0  0  0
  1  4  1  0  0  0  0
  1  9  1  0  0  0  0
  1 12  1  0  0  0  0
  1 13  1  0  0  0  0
  2  5  2  0  0  0  0
  2  8  1  0  0  0  0
  2 14  1  0  0  0  0
  3  5  1  0  0  0  0
  3  7  2  0  0  0  0
  3 15  1  0  0  0  0
  4 10  1  0  0  0  0
  4 11  1  0  0  0  0
  4 16  1  0  0  0  0
  5  6  1  0  0  0  0
  6 17  1  0  0  0  0
  7  9  1  0  0  0  0
  7 18  1  0  0  0  0
  8  9  2  0  0  0  0
  8 19  1  0  0  0  0
 10 20  1  0  0  0  0
 10 21  1  0  0  0  0
 10 22  1  0  0  0  0
 11 23  1  0  0  0  0
 11 24  1  0  0  0  0
 11 25  1  0  0  0  0
M  CHG  1  10   1
M  END
>  <PARENT_CMPD_ID>
3BUF

>  <STANDARD_TYPE>
Kd

>  <RELATION>
=

>  <STANDARD_VALUE>
800

>  <STANDARD_UNITS>
uM

>  <COMPOUND_KEY>
2

>  <PUBMED_ID>
18226904

>  <JOURNAL>
Bioorg.Med.Chem.Lett.

>  <YEAR>
2008

>  <VOLUME>
18

>  <FIRST_PAGE>
1304

>  <Company>
Roche

>  <Resolution>
2.3

>  <idx>
273

>  <Model>
Test

>  <target>
3.09691

>  <des_pred_mlr>
2.98699

>  <RF_Canvas>
3.0748234

>  <DNN_Canvas>
3.4567482

>  <pred_CoMFA>
3.3922

>  <pred_COMSIA>
4.3614998

>  <pred_abm5>
3.4931352

>  <pred_ff8>
3.4637368

>  <pred_gau6>
2.7926848

>  <CID>
BACE_273

>  <RF_canvas>
0

>  <DNN_canvas>
0

$$$$
3BRA_1304
  MOE2015           3D

 22 22  0  0  0  0  0  0  0  0999 V2000
   24.0460   10.4070   21.2280 C   0  0  0  0  0  0  0  0  0  0  0  0
   26.3970   12.6930   19.2670 C   0  0  0  0  0  0  0  0  0  0  0  0
   24.7930   11.6980   17.7350 C   0  0  0  0  0  0  0  0  0  0  0  0
   22.5340   10.6930   21.2600 C   0  0  0  0  0  0  0  0  0  0  0  0
   25.8860   12.5340   17.9770 C   0  0  0  0  0  0  0  0  0  0  0  0
   26.4560   13.2090   16.9220 O   0  0  0  0  0  0  0  0  0  0  0  0
   24.2080   11.0140   18.7980 C   0  0  0  0  0  0  0  0  0  0  0  0
   25.8000   11.9970   20.3230 C   0  0  0  0  0  0  0  0  0  0  0  0
   24.7020   11.1590   20.0930 C   0  0  0  0  0  0  0  0  0  0  0  0
   21.8800   10.1160   22.4600 N   0  3  0  0  0  0  0  0  0  0  0  0
   24.2060    9.3380   21.0900 H   0  0  0  0  0  0  0  0  0  0  0  0
   24.4910   10.7220   22.1720 H   0  0  0  0  0  0  0  0  0  0  0  0
   27.2400   13.3430   19.4460 H   0  0  0  0  0  0  0  0  0  0  0  0
   24.4060   11.5830   16.7330 H   0  0  0  0  0  0  0  0  0  0  0  0
   22.0760   10.2620   20.3690 H   0  0  0  0  0  0  0  0  0  0  0  0
   22.3810   11.7720   21.2610 H   0  0  0  0  0  0  0  0  0  0  0  0
   26.0460   13.0490   16.0690 H   0  0  0  0  0  0  0  0  0  0  0  0
   23.3640   10.3650   18.6170 H   0  0  0  0  0  0  0  0  0  0  0  0
   26.1890   12.1070   21.3240 H   0  0  0  0  0  0  0  0  0  0  0  0
   22.0160    9.1150   22.4690 H   0  0  0  0  0  0  0  0  0  0  0  0
   20.8910   10.3210   22.4360 H   0  0  0  0  0  0  0  0  0  0  0  0
   22.2880   10.5190   23.2920 H   0  0  0  0  0  0  0  0  0  0  0  0
  1  4  1  0  0  0  0
  1  9  1  0  0  0  0
  1 11  1  0  0  0  0
  1 12  1  0  0  0  0
  2  5  2  0  0  0  0
  2  8  1  0  0  0  0
  2 13  1  0  0  0  0
  3  5  1  0  0  0  0
  3  7  2  0  0  0  0
  3 14  1  0  0  0  0
  4 10  1  0  0  0  0
  4 15  1  0  0  0  0
  4 16  1  0  0  0  0
  5  6  1  0  0  0  0
  6 17  1  0  0  0  0
  7  9  1  0  0  0  0
  7 18  1  0  0  0  0
  8  9  2  0  0  0  0
  8 19  1  0  0  0  0
 10 20  1  0  0  0  0
 10 21  1  0  0  0  0
 10 22  1  0  0  0  0
M  CHG  1  10   1
M  END
>  <PARENT_CMPD_ID>
3BRA

>  <STANDARD_TYPE>
Kd

>  <RELATION>
=

>  <STANDARD_VALUE>
2000

>  <STANDARD_UNITS>
uM

>  <COMPOUND_KEY>
1

>  <PUBMED_ID>
18226904

>  <JOURNAL>
Bioorg.Med.Chem.Lett.

>  <YEAR>
2008

>  <VOLUME>
18

>  <FIRST_PAGE>
1304

>  <Company>
Roche

>  <Resolution>
2.3

>  <idx>
274

>  <Model>
Test

>  <target>
2.6989701

>  <des_pred_mlr>
2.7855999

>  <RF_Canvas>
2.9922087

>  <DNN_Canvas>
2.8661101

>  <pred_CoMFA>
3.2114

>  <pred_COMSIA>
3.7463

>  <pred_abm5>
3.2847641

>  <pred_ff8>
3.5244792

>  <pred_gau6>
2.7914491

>  <CID>
BACE_274

>  <RF_canvas>
0

>  <DNN_canvas>
0

$$$$
CHEMBL573106
  MOE2015           3D

111114  0  0  1  0  0  0  0  0999 V2000
   19.8640   11.5720   28.3240 C   0  0  0  0  0  0  0  0  0  0  0  0
   20.7520   11.8940   27.2690 O   0  0  0  0  0  0  0  0  0  0  0  0
   20.5920   11.0660   26.1200 C   0  0  3  0  0  0  0  0  0  0  0  0
   21.8520   11.3200   25.2910 C   0  0  0  0  0  0  0  0  0  0  0  0
   22.1440   10.1940   24.3060 C   0  0  3  0  0  0  0  0  0  0  0  0
   22.9870    9.2400   24.9560 O   0  0  0  0  0  0  0  0  0  0  0  0
   22.8570   10.7100   23.0370 C   0  0  3  0  0  0  0  0  0  0  0  0
   23.0630    9.5820   22.0070 C   0  0  0  0  0  0  0  0  0  0  0  0
   24.1830    9.7460   21.1320 O   0  0  0  0  0  0  0  0  0  0  0  0
   24.2560   10.8200   20.2990 C   0  0  0  0  0  0  0  0  0  0  0  0
   23.2270   11.7010   19.9970 C   0  0  0  0  0  0  0  0  0  0  0  0
   23.4800   12.7950   19.1840 C   0  0  0  0  0  0  0  0  0  0  0  0
   22.4890   13.6440   18.9140 F   0  0  0  0  0  0  0  0  0  0  0  0
   24.7290   13.0220   18.6440 C   0  0  0  0  0  0  0  0  0  0  0  0
   25.7340   12.1210   18.9140 C   0  0  0  0  0  0  0  0  0  0  0  0
   26.9480   12.3160   18.4010 F   0  0  0  0  0  0  0  0  0  0  0  0
   25.5080   11.0220   19.7240 C   0  0  0  0  0  0  0  0  0  0  0  0
   24.1180   11.3760   23.3440 N   0  0  0  0  0  0  0  0  0  0  0  0
   24.2090   12.7460   23.4650 C   0  0  0  0  0  0  0  0  0  0  0  0
   23.2720   13.5260   23.3740 O   0  0  0  0  0  0  0  0  0  0  0  0
   25.5650   13.2690   23.6840 C   0  0  0  0  0  0  0  0  0  0  0  0
   25.7710   14.2830   24.6090 C   0  0  0  0  0  0  0  0  0  0  0  0
   27.0440   14.8140   24.8010 C   0  0  0  0  0  0  0  0  0  0  0  0
   28.0990   14.3190   24.0380 C   0  0  0  0  0  0  0  0  0  0  0  0
   27.8880   13.2910   23.1220 C   0  0  0  0  0  0  0  0  0  0  0  0
   26.6160   12.7800   22.9290 C   0  0  0  0  0  0  0  0  0  0  0  0
   29.0300   12.7510   22.3500 C   0  0  0  0  0  0  0  0  0  0  0  0
   29.9440   13.4880   22.0100 O   0  0  0  0  0  0  0  0  0  0  0  0
   28.9730   11.4000   22.0950 N   0  0  0  0  0  0  0  0  0  0  0  0
   30.0120   10.6980   21.3640 C   0  0  3  0  0  0  0  0  0  0  0  0
   29.4020    9.7970   20.2980 C   0  0  0  0  0  0  0  0  0  0  0  0
   30.8830    9.9250   22.3300 C   0  0  0  0  0  0  0  0  0  0  0  0
   30.3630    8.9200   23.1500 C   0  0  0  0  0  0  0  0  0  0  0  0
   31.1810    8.2410   24.0440 C   0  0  0  0  0  0  0  0  0  0  0  0
   32.5300    8.5500   24.1270 C   0  0  0  0  0  0  0  0  0  0  0  0
   33.0600    9.5420   23.3190 C   0  0  0  0  0  0  0  0  0  0  0  0
   32.2410   10.2280   22.4310 C   0  0  0  0  0  0  0  0  0  0  0  0
   27.2050   15.8740   25.7530 N   0  0  0  0  0  0  0  0  0  0  0  0
   26.2240   16.9690   25.7650 C   0  0  0  0  0  0  0  0  0  0  0  0
   28.6110   16.0530   26.6730 S   0  0  0  0  0  0  0  0  0  0  0  0
   28.2700   16.7260   27.9070 O   0  0  0  0  0  0  0  0  0  0  0  0
   29.3640   14.8210   26.7210 O   0  0  0  0  0  0  0  0  0  0  0  0
   29.5280   17.2250   25.7010 C   0  0  0  0  0  0  0  0  0  0  0  0
   19.3800   11.5570   25.3210 C   0  0  0  0  0  0  0  0  0  0  0  0
   19.3060   12.7140   24.9120 O   0  0  0  0  0  0  0  0  0  0  0  0
   18.3680   10.6430   25.1160 N   0  0  0  0  0  0  0  0  0  0  0  0
   17.1340   11.0900   24.4780 C   0  0  3  0  0  0  0  0  0  0  0  0
   16.0970   10.0000   24.1360 C   0  0  0  0  0  0  0  0  0  0  0  0
   15.9300    8.9410   25.2180 C   0  0  0  0  0  0  0  0  0  0  0  0
   16.4130    9.3460   22.8010 C   0  0  0  0  0  0  0  0  0  0  0  0
   16.4580   12.1010   25.4090 C   0  0  0  0  0  0  0  0  0  0  0  0
   16.4610   11.9770   26.6290 O   0  0  0  0  0  0  0  0  0  0  0  0
   15.8220   13.1170   24.7350 N   0  0  0  0  0  0  0  0  0  0  0  0
   15.1240   14.1800   25.4110 C   0  0  0  0  0  0  0  0  0  0  0  0
   15.6530   15.5060   24.9520 C   0  0  0  0  0  0  0  0  0  0  0  0
   16.9120   15.9350   25.3710 C   0  0  0  0  0  0  0  0  0  0  0  0
   17.4290   17.1420   24.9270 C   0  0  0  0  0  0  0  0  0  0  0  0
   16.6920   17.9300   24.0580 C   0  0  0  0  0  0  0  0  0  0  0  0
   15.4410   17.5120   23.6310 C   0  0  0  0  0  0  0  0  0  0  0  0
   14.9230   16.3030   24.0730 C   0  0  0  0  0  0  0  0  0  0  0  0
   20.0120   10.5380   28.6500 H   0  0  0  0  0  0  0  0  0  0  0  0
   18.8250   11.7240   28.0220 H   0  0  0  0  0  0  0  0  0  0  0  0
   20.0770   12.2340   29.1680 H   0  0  0  0  0  0  0  0  0  0  0  0
   20.5050   10.0130   26.4110 H   0  0  0  0  0  0  0  0  0  0  0  0
   21.7220   12.2690   24.7630 H   0  0  0  0  0  0  0  0  0  0  0  0
   22.7070   11.4670   25.9650 H   0  0  0  0  0  0  0  0  0  0  0  0
   21.2230    9.6790   24.0100 H   0  0  0  0  0  0  0  0  0  0  0  0
   23.7640    9.7170   25.2980 H   0  0  0  0  0  0  0  0  0  0  0  0
   22.1940   11.4570   22.5850 H   0  0  0  0  0  0  0  0  0  0  0  0
   22.1490    9.4120   21.4230 H   0  0  0  0  0  0  0  0  0  0  0  0
   23.2560    8.6370   22.5280 H   0  0  0  0  0  0  0  0  0  0  0  0
   22.2200   11.5730   20.3740 H   0  0  0  0  0  0  0  0  0  0  0  0
   24.9100   13.8830   18.0120 H   0  0  0  0  0  0  0  0  0  0  0  0
   26.3170   10.3260   19.9180 H   0  0  0  0  0  0  0  0  0  0  0  0
   24.9380   10.7920   23.4590 H   0  0  0  0  0  0  0  0  0  0  0  0
   24.9240   14.6470   25.1870 H   0  0  0  0  0  0  0  0  0  0  0  0
   29.1070   14.7050   24.1500 H   0  0  0  0  0  0  0  0  0  0  0  0
   26.4320   12.0340   22.1650 H   0  0  0  0  0  0  0  0  0  0  0  0
   28.2130   10.8420   22.4570 H   0  0  0  0  0  0  0  0  0  0  0  0
   30.6280   11.4430   20.8440 H   0  0  0  0  0  0  0  0  0  0  0  0
   28.7050    9.0670   20.7240 H   0  0  0  0  0  0  0  0  0  0  0  0
   30.1780    9.2450   19.7560 H   0  0  0  0  0  0  0  0  0  0  0  0
   28.8410   10.3920   19.5690 H   0  0  0  0  0  0  0  0  0  0  0  0
   29.3110    8.6530   23.1000 H   0  0  0  0  0  0  0  0  0  0  0  0
   30.7700    7.4540   24.6720 H   0  0  0  0  0  0  0  0  0  0  0  0
   33.1720    8.0100   24.8180 H   0  0  0  0  0  0  0  0  0  0  0  0
   34.1190    9.7810   23.3770 H   0  0  0  0  0  0  0  0  0  0  0  0
   32.6760   11.0140   21.8170 H   0  0  0  0  0  0  0  0  0  0  0  0
   25.3490   16.6850   26.3570 H   0  0  0  0  0  0  0  0  0  0  0  0
   25.9080   17.2230   24.7480 H   0  0  0  0  0  0  0  0  0  0  0  0
   26.6370   17.8830   26.2020 H   0  0  0  0  0  0  0  0  0  0  0  0
   28.9610   18.1530   25.6190 H   0  0  0  0  0  0  0  0  0  0  0  0
   29.7360   16.8100   24.7150 H   0  0  0  0  0  0  0  0  0  0  0  0
   30.4710   17.4210   26.2180 H   0  0  0  0  0  0  0  0  0  0  0  0
   18.4710    9.6840   25.4220 H   0  0  0  0  0  0  0  0  0  0  0  0
   17.4240   11.6200   23.5610 H   0  0  0  0  0  0  0  0  0  0  0  0
   15.1170   10.4830   24.0120 H   0  0  0  0  0  0  0  0  0  0  0  0
   16.8190    8.3100   25.3160 H   0  0  0  0  0  0  0  0  0  0  0  0
   15.0900    8.2800   24.9780 H   0  0  0  0  0  0  0  0  0  0  0  0
   15.7200    9.3920   26.1930 H   0  0  0  0  0  0  0  0  0  0  0  0
   17.3820    8.8370   22.8270 H   0  0  0  0  0  0  0  0  0  0  0  0
   16.4430   10.0890   21.9970 H   0  0  0  0  0  0  0  0  0  0  0  0
   15.6510    8.6050   22.5370 H   0  0  0  0  0  0  0  0  0  0  0  0
   15.8440   13.1480   23.7230 H   0  0  0  0  0  0  0  0  0  0  0  0
   14.0610   14.0750   25.1680 H   0  0  0  0  0  0  0  0  0  0  0  0
   15.2180   14.0920   26.4990 H   0  0  0  0  0  0  0  0  0  0  0  0
   17.5050   15.3140   26.0400 H   0  0  0  0  0  0  0  0  0  0  0  0
   18.4150   17.4620   25.2530 H   0  0  0  0  0  0  0  0  0  0  0  0
   17.0960   18.8750   23.7060 H   0  0  0  0  0  0  0  0  0  0  0  0
   14.8680   18.1290   22.9440 H   0  0  0  0  0  0  0  0  0  0  0  0
   13.9430   15.9870   23.7220 H   0  0  0  0  0  0  0  0  0  0  0  0
  1  2  1  0  0  0  0
  1 61  1  0  0  0  0
  1 62  1  0  0  0  0
  1 63  1  0  0  0  0
  2  3  1  0  0  0  0
  3  4  1  0  0  0  0
  3 44  1  0  0  0  0
  3 64  1  0  0  0  0
  4  5  1  0  0  0  0
  4 65  1  0  0  0  0
  4 66  1  0  0  0  0
  5  6  1  0  0  0  0
  5  7  1  0  0  0  0
  5 67  1  0  0  0  0
  6 68  1  0  0  0  0
  7  8  1  0  0  0  0
  7 18  1  0  0  0  0
  7 69  1  0  0  0  0
  8  9  1  0  0  0  0
  8 70  1  0  0  0  0
  8 71  1  0  0  0  0
  9 10  1  0  0  0  0
 10 11  1  0  0  0  0
 10 17  2  0  0  0  0
 11 12  2  0  0  0  0
 11 72  1  0  0  0  0
 12 13  1  0  0  0  0
 12 14  1  0  0  0  0
 14 15  2  0  0  0  0
 14 73  1  0  0  0  0
 15 16  1  0  0  0  0
 15 17  1  0  0  0  0
 17 74  1  0  0  0  0
 18 19  1  0  0  0  0
 18 75  1  0  0  0  0
 19 20  2  0  0  0  0
 19 21  1  0  0  0  0
 21 22  1  0  0  0  0
 21 26  2  0  0  0  0
 22 23  2  0  0  0  0
 22 76  1  0  0  0  0
 23 24  1  0  0  0  0
 23 38  1  0  0  0  0
 24 25  2  0  0  0  0
 24 77  1  0  0  0  0
 25 26  1  0  0  0  0
 25 27  1  0  0  0  0
 26 78  1  0  0  0  0
 27 28  2  0  0  0  0
 27 29  1  0  0  0  0
 29 30  1  0  0  0  0
 29 79  1  0  0  0  0
 30 31  1  0  0  0  0
 30 32  1  0  0  0  0
 30 80  1  0  0  0  0
 31 81  1  0  0  0  0
 31 82  1  0  0  0  0
 31 83  1  0  0  0  0
 32 33  1  0  0  0  0
 32 37  2  0  0  0  0
 33 34  2  0  0  0  0
 33 84  1  0  0  0  0
 34 35  1  0  0  0  0
 34 85  1  0  0  0  0
 35 36  2  0  0  0  0
 35 86  1  0  0  0  0
 36 37  1  0  0  0  0
 36 87  1  0  0  0  0
 37 88  1  0  0  0  0
 38 39  1  0  0  0  0
 38 40  1  0  0  0  0
 39 89  1  0  0  0  0
 39 90  1  0  0  0  0
 39 91  1  0  0  0  0
 40 41  2  0  0  0  0
 40 42  2  0  0  0  0
 40 43  1  0  0  0  0
 43 92  1  0  0  0  0
 43 93  1  0  0  0  0
 43 94  1  0  0  0  0
 44 45  2  0  0  0  0
 44 46  1  0  0  0  0
 46 47  1  0  0  0  0
 46 95  1  0  0  0  0
 47 48  1  0  0  0  0
 47 51  1  0  0  0  0
 47 96  1  0  0  0  0
 48 49  1  0  0  0  0
 48 50  1  0  0  0  0
 48 97  1  0  0  0  0
 49 98  1  0  0  0  0
 49 99  1  0  0  0  0
 49100  1  0  0  0  0
 50101  1  0  0  0  0
 50102  1  0  0  0  0
 50103  1  0  0  0  0
 51 52  2  0  0  0  0
 51 53  1  0  0  0  0
 53 54  1  0  0  0  0
 53104  1  0  0  0  0
 54 55  1  0  0  0  0
 54105  1  0  0  0  0
 54106  1  0  0  0  0
 55 56  1  0  0  0  0
 55 60  2  0  0  0  0
 56 57  2  0  0  0  0
 56107  1  0  0  0  0
 57 58  1  0  0  0  0
 57108  1  0  0  0  0
 58 59  2  0  0  0  0
 58109  1  0  0  0  0
 59 60  1  0  0  0  0
 59110  1  0  0  0  0
 60111  1  0  0  0  0
M  END
>  <PARENT_CMPD_ID>
CHEMBL573106

>  <STANDARD_TYPE>
IC50

>  <RELATION>
=

>  <STANDARD_VALUE>
0.31999999

>  <STANDARD_UNITS>
nM

>  <COMPOUND_KEY>
1

>  <PUBMED_ID>
19995674

>  <JOURNAL>
Eur. J. Med. Chem.

>  <YEAR>
2010

>  <VOLUME>
45

>  <FIRST_PAGE>
542

>  <Company>
Novartis

>  <idx>
275

>  <Model>
Valid

>  <target>
9.4948502

>  <des_pred_mlr>
8.6018896

>  <RF_Canvas>
7.5880046

>  <DNN_Canvas>
7.3136573

>  <pred_CoMFA>
8.3022003

>  <pred_COMSIA>
9.8673

>  <pred_abm5>
8.4800415

>  <pred_ff8>
8.1049786

>  <pred_gau6>
8.9828281

>  <CID>
BACE_275

>  <active>
1

>  <des_class_bayes>
1

>  <maacs_class_bayes>
1

>  <radial_class_bayes>
0

>  <dend_class_bayes>
1

>  <molprint_class_bayes>
1

>  <RF_canvas>
1

>  <DNN_canvas>
1

$$$$
21707077_51
  MOE2015           3D

 63 65  0  0  1  0  0  0  0  0999 V2000
   20.6840   12.9840   18.6770 C   0  0  0  0  0  0  0  0  0  0  0  0
   21.5510   13.9710   18.1770 C   0  0  0  0  0  0  0  0  0  0  0  0
   21.1300   14.7940   17.1310 C   0  0  0  0  0  0  0  0  0  0  0  0
   21.7910   15.5560   16.7450 H   0  0  0  0  0  0  0  0  0  0  0  0
   21.0450   12.1310   19.7240 C   0  0  0  0  0  0  0  0  0  0  0  0
   21.2420   10.7720   19.4700 C   0  0  0  0  0  0  0  0  0  0  0  0
   21.1250   10.3900   18.4660 H   0  0  0  0  0  0  0  0  0  0  0  0
   21.1810   12.6190   21.0270 C   0  0  0  0  0  0  0  0  0  0  0  0
   21.0110   13.6660   21.2330 H   0  0  0  0  0  0  0  0  0  0  0  0
   22.0390   11.3280   24.3910 C   0  0  0  0  0  0  0  0  0  0  0  0
   22.9680   14.1880   18.7410 C   0  0  0  0  0  0  0  0  0  0  0  0
   23.1510   13.4760   19.5460 H   0  0  0  0  0  0  0  0  0  0  0  0
   23.0540   15.2040   19.1270 H   0  0  0  0  0  0  0  0  0  0  0  0
   23.7010   14.0370   17.9490 H   0  0  0  0  0  0  0  0  0  0  0  0
   21.0080   11.4300   26.6850 C   0  0  3  0  0  0  0  0  0  0  0  0
   21.0070   10.3410   26.6490 H   0  0  0  0  0  0  0  0  0  0  0  0
   19.6570   11.9440   26.1690 C   0  0  0  0  0  0  0  0  0  0  0  0
   17.0580   11.1470   23.9620 C   0  0  0  0  0  0  0  0  0  0  0  0
   16.0110   11.4300   23.8540 H   0  0  0  0  0  0  0  0  0  0  0  0
   17.7370   11.7550   23.3650 H   0  0  0  0  0  0  0  0  0  0  0  0
   16.7470    9.5670   22.0290 C   0  0  0  0  0  0  0  0  0  0  0  0
   15.6760    9.7680   21.9920 H   0  0  0  0  0  0  0  0  0  0  0  0
   16.9380    8.5500   21.6870 H   0  0  0  0  0  0  0  0  0  0  0  0
   17.2760   10.2740   21.3900 H   0  0  0  0  0  0  0  0  0  0  0  0
   17.2290    9.7010   23.4910 C   0  0  0  0  0  0  0  0  0  0  0  0
   16.4150    8.7880   24.3730 C   0  0  0  0  0  0  0  0  0  0  0  0
   16.7540    8.8810   25.4040 H   0  0  0  0  0  0  0  0  0  0  0  0
   16.5400    7.7570   24.0410 H   0  0  0  0  0  0  0  0  0  0  0  0
   15.3630    9.0640   24.3100 H   0  0  0  0  0  0  0  0  0  0  0  0
   18.6840    9.3150   23.5750 C   0  0  0  0  0  0  0  0  0  0  0  0
   19.0260    9.4090   24.6060 H   0  0  0  0  0  0  0  0  0  0  0  0
   19.2730    9.9740   22.9360 H   0  0  0  0  0  0  0  0  0  0  0  0
   18.8060    8.2840   23.2450 H   0  0  0  0  0  0  0  0  0  0  0  0
   17.3750   11.3150   25.4590 C   0  0  0  0  0  0  0  0  0  0  0  0
   16.7010   10.6640   26.0150 H   0  0  0  0  0  0  0  0  0  0  0  0
   17.1780   12.3540   25.7240 H   0  0  0  0  0  0  0  0  0  0  0  0
   18.7600   10.9970   25.8830 N   0  0  0  0  0  0  0  0  0  0  0  0
   19.0350   10.0280   25.9580 H   0  0  0  0  0  0  0  0  0  0  0  0
   19.4450   13.1560   26.0680 O   0  0  0  0  0  0  0  0  0  0  0  0
   21.1960   11.9200   28.1360 C   0  0  0  0  0  0  0  0  0  0  0  0
   21.2160   13.0100   28.1450 H   0  0  0  0  0  0  0  0  0  0  0  0
   22.1400   11.5360   28.5230 H   0  0  0  0  0  0  0  0  0  0  0  0
   20.3740   11.5640   28.7580 H   0  0  0  0  0  0  0  0  0  0  0  0
   22.1780   11.9070   25.8040 C   0  0  0  0  0  0  0  0  0  0  0  0
   22.1690   12.9960   25.7510 H   0  0  0  0  0  0  0  0  0  0  0  0
   23.1190   11.5720   26.2410 H   0  0  0  0  0  0  0  0  0  0  0  0
   22.2250    9.9790   24.0560 C   0  0  0  0  0  0  0  0  0  0  0  0
   22.0720    9.5580   22.7890 N   0  0  0  0  0  0  0  0  0  0  0  0
   22.5620    9.0810   24.9770 N   0  0  0  0  0  0  0  0  0  0  0  0
   22.6950    8.1150   24.7150 H   0  0  0  0  0  0  0  0  0  0  0  0
   22.6850    9.3650   25.9380 H   0  0  0  0  0  0  0  0  0  0  0  0
   21.6890   12.2170   23.3710 C   0  0  0  0  0  0  0  0  0  0  0  0
   21.5360   13.2630   23.5940 H   0  0  0  0  0  0  0  0  0  0  0  0
   21.5370   11.7510   22.0630 C   0  0  0  0  0  0  0  0  0  0  0  0
   21.7360   10.3970   21.7980 C   0  0  0  0  0  0  0  0  0  0  0  0
   21.5880    9.9070   20.5040 C   0  0  0  0  0  0  0  0  0  0  0  0
   21.7410    8.8570   20.3020 H   0  0  0  0  0  0  0  0  0  0  0  0
   19.4110   12.8350   18.1190 C   0  0  0  0  0  0  0  0  0  0  0  0
   18.7440   12.0760   18.4990 H   0  0  0  0  0  0  0  0  0  0  0  0
   18.9990   13.6590   17.0770 C   0  0  0  0  0  0  0  0  0  0  0  0
   18.0130   13.5420   16.6520 H   0  0  0  0  0  0  0  0  0  0  0  0
   19.8580   14.6340   16.5830 C   0  0  0  0  0  0  0  0  0  0  0  0
   19.5390   15.2700   15.7710 H   0  0  0  0  0  0  0  0  0  0  0  0
  1  2  2  0  0  0  0
  1  5  1  0  0  0  0
  1 58  1  0  0  0  0
  2  3  1  0  0  0  0
  2 11  1  0  0  0  0
  3  4  1  0  0  0  0
  3 62  2  0  0  0  0
  5  6  1  0  0  0  0
  5  8  2  0  0  0  0
  6  7  1  0  0  0  0
  6 56  2  0  0  0  0
  8  9  1  0  0  0  0
  8 54  1  0  0  0  0
 10 44  1  0  0  0  0
 10 47  2  0  0  0  0
 10 52  1  0  0  0  0
 11 12  1  0  0  0  0
 11 13  1  0  0  0  0
 11 14  1  0  0  0  0
 15 16  1  0  0  0  0
 15 17  1  0  0  0  0
 15 40  1  0  0  0  0
 15 44  1  0  0  0  0
 17 37  1  0  0  0  0
 17 39  2  0  0  0  0
 18 19  1  0  0  0  0
 18 20  1  0  0  0  0
 18 25  1  0  0  0  0
 18 34  1  0  0  0  0
 21 22  1  0  0  0  0
 21 23  1  0  0  0  0
 21 24  1  0  0  0  0
 21 25  1  0  0  0  0
 25 26  1  0  0  0  0
 25 30  1  0  0  0  0
 26 27  1  0  0  0  0
 26 28  1  0  0  0  0
 26 29  1  0  0  0  0
 30 31  1  0  0  0  0
 30 32  1  0  0  0  0
 30 33  1  0  0  0  0
 34 35  1  0  0  0  0
 34 36  1  0  0  0  0
 34 37  1  0  0  0  0
 37 38  1  0  0  0  0
 40 41  1  0  0  0  0
 40 42  1  0  0  0  0
 40 43  1  0  0  0  0
 44 45  1  0  0  0  0
 44 46  1  0  0  0  0
 47 48  1  0  0  0  0
 47 49  1  0  0  0  0
 48 55  2  0  0  0  0
 49 50  1  0  0  0  0
 49 51  1  0  0  0  0
 52 53  1  0  0  0  0
 52 54  2  0  0  0  0
 54 55  1  0  0  0  0
 55 56  1  0  0  0  0
 56 57  1  0  0  0  0
 58 59  1  0  0  0  0
 58 60  2  0  0  0  0
 60 61  1  0  0  0  0
 60 62  1  0  0  0  0
 62 63  1  0  0  0  0
M  END
>  <PARENT_CMPD_ID>
21707077_51

>  <STANDARD_TYPE>
IC50

>  <RELATION>
=

>  <STANDARD_VALUE>
0.00065

>  <STANDARD_UNITS>
uM

>  <COMPOUND_KEY>
51

>  <PUBMED_ID>
21707077

>  <JOURNAL>
J.Med.Chem.

>  <YEAR>
2011

>  <VOLUME>
54

>  <FIRST_PAGE>
5836

>  <Company>
Amgen

>  <idx>
276

>  <Model>
Valid

>  <target>
9.1870871

>  <des_pred_mlr>
7.4388099

>  <RF_Canvas>
6.6945043

>  <DNN_Canvas>
7.5375438

>  <pred_CoMFA>
7.2810998

>  <pred_COMSIA>
6.7660999

>  <pred_abm5>
7.4869452

>  <pred_ff8>
5.9563222

>  <pred_gau6>
7.078959

>  <CID>
BACE_276

>  <active>
1

>  <des_class_bayes>
1

>  <maacs_class_bayes>
0

>  <radial_class_bayes>
1

>  <dend_class_bayes>
1

>  <molprint_class_bayes>
1

>  <RF_canvas>
0

>  <DNN_canvas>
1

$$$$
CHEMBL1916003
  MOE2015           3D

 89 92  0  0  1  0  0  0  0  0999 V2000
   25.1250   20.4600   25.3770 C   0  0  0  0  0  0  0  0  0  0  0  0
   25.0110   21.5340   25.3990 H   0  0  0  0  0  0  0  0  0  0  0  0
   24.5530   19.6790   26.3820 C   0  0  0  0  0  0  0  0  0  0  0  0
   23.9970   20.1390   27.1860 H   0  0  0  0  0  0  0  0  0  0  0  0
   25.8500   19.8520   24.3350 C   0  0  0  0  0  0  0  0  0  0  0  0
   26.2880   20.4650   23.5610 H   0  0  0  0  0  0  0  0  0  0  0  0
   24.7120   18.2920   26.3300 C   0  0  0  0  0  0  0  0  0  0  0  0
   24.2700   17.6760   27.0990 H   0  0  0  0  0  0  0  0  0  0  0  0
   26.0110   18.4630   24.2890 C   0  0  0  0  0  0  0  0  0  0  0  0
   26.5700   17.9990   23.4900 H   0  0  0  0  0  0  0  0  0  0  0  0
   23.1870   11.8460   20.3250 C   0  0  0  0  0  0  0  0  0  0  0  0
   22.2260   12.1450   20.7180 H   0  0  0  0  0  0  0  0  0  0  0  0
   25.1040   10.4330   20.3920 C   0  0  0  0  0  0  0  0  0  0  0  0
   25.6580    9.6180   20.8340 H   0  0  0  0  0  0  0  0  0  0  0  0
   24.9360   12.1640   18.6930 C   0  0  0  0  0  0  0  0  0  0  0  0
   25.3360   12.6830   17.8350 H   0  0  0  0  0  0  0  0  0  0  0  0
   25.4350   17.6910   25.2960 C   0  0  0  0  0  0  0  0  0  0  0  0
   23.8700   10.7920   20.9260 C   0  0  0  0  0  0  0  0  0  0  0  0
   23.7120   12.5220   19.2320 C   0  0  0  0  0  0  0  0  0  0  0  0
   25.6390   11.1160   19.2860 C   0  0  0  0  0  0  0  0  0  0  0  0
   27.1750   13.4880   23.6660 C   0  0  0  0  0  0  0  0  0  0  0  0
   29.7210   15.1070   22.9300 C   0  0  0  0  0  0  0  0  0  0  0  0
   23.6640   13.1990   23.8080 C   0  0  0  0  0  0  0  0  0  0  0  0
   27.2350   14.1150   21.3400 C   0  0  0  0  0  0  0  0  0  0  0  0
   27.5580   15.1550   21.2900 H   0  0  0  0  0  0  0  0  0  0  0  0
   27.3370   13.6550   20.3570 H   0  0  0  0  0  0  0  0  0  0  0  0
   20.4890   11.9020   25.1990 C   0  0  0  0  0  0  0  0  0  0  0  0
   20.8500   12.9300   25.1550 H   0  0  0  0  0  0  0  0  0  0  0  0
   20.0890   11.6150   24.2260 H   0  0  0  0  0  0  0  0  0  0  0  0
   25.8080   13.9890   21.8800 C   0  0  0  0  0  0  0  0  0  0  0  0
   25.3190   13.1130   21.4530 H   0  0  0  0  0  0  0  0  0  0  0  0
   25.2320   14.8820   21.6350 H   0  0  0  0  0  0  0  0  0  0  0  0
   20.1540   11.0320   27.3770 C   0  0  0  0  0  0  0  0  0  0  0  0
   19.4610   10.5130   28.0390 H   0  0  0  0  0  0  0  0  0  0  0  0
   20.7690   11.7180   27.9600 H   0  0  0  0  0  0  0  0  0  0  0  0
   19.4070   11.7700   26.2720 C   0  0  3  0  0  0  0  0  0  0  0  0
   18.5160   11.2310   25.9490 H   0  0  0  0  0  0  0  0  0  0  0  0
   18.8240   13.0080   26.6430 O   0  0  0  0  0  0  0  0  0  0  0  0
   19.5300   13.5810   26.9510 H   0  0  0  0  0  0  0  0  0  0  0  0
   21.6380   10.9530   25.6010 C   0  0  3  0  0  0  0  0  0  0  0  0
   22.4980   11.5110   25.9720 H   0  0  0  0  0  0  0  0  0  0  0  0
   27.9980   13.3320   22.4170 C   0  0  3  0  0  0  0  0  0  0  0  0
   31.1870   15.4700   22.9610 C   0  0  0  0  0  0  0  0  0  0  0  0
   31.7790   14.6180   22.6270 H   0  0  0  0  0  0  0  0  0  0  0  0
   31.4740   15.7350   23.9780 H   0  0  0  0  0  0  0  0  0  0  0  0
   31.3650   16.3180   22.3000 H   0  0  0  0  0  0  0  0  0  0  0  0
   25.5880   16.1920   25.2840 C   0  0  0  0  0  0  0  0  0  0  0  0
   25.5430   15.8240   26.3090 H   0  0  0  0  0  0  0  0  0  0  0  0
   26.5550   15.9390   24.8500 H   0  0  0  0  0  0  0  0  0  0  0  0
   23.2770   10.0620   22.1220 C   0  0  0  0  0  0  0  0  0  0  0  0
   24.0490    9.4200   22.5450 H   0  0  0  0  0  0  0  0  0  0  0  0
   22.4480    9.4490   21.7690 H   0  0  0  0  0  0  0  0  0  0  0  0
   27.8650   11.8720   21.9640 C   0  0  3  0  0  0  0  0  0  0  0  0
   27.0780   11.8930   20.6780 C   0  0  0  0  0  0  0  0  0  0  0  0
   26.9540   10.8740   20.3110 H   0  0  0  0  0  0  0  0  0  0  0  0
   27.8170   12.7110   19.6490 C   0  0  0  0  0  0  0  0  0  0  0  0
   27.2490   12.7260   18.7200 H   0  0  0  0  0  0  0  0  0  0  0  0
   28.7970   12.2680   19.4690 H   0  0  0  0  0  0  0  0  0  0  0  0
   27.9410   13.7300   20.0160 H   0  0  0  0  0  0  0  0  0  0  0  0
   26.0980   12.3350   20.8580 H   0  0  0  0  0  0  0  0  0  0  0  0
   27.2880   11.3610   22.7350 H   0  0  0  0  0  0  0  0  0  0  0  0
   24.4840   15.5150   24.4650 C   0  0  0  0  0  0  0  0  0  0  0  0
   24.4070   15.9970   23.4900 H   0  0  0  0  0  0  0  0  0  0  0  0
   23.5340   15.6050   24.9910 H   0  0  0  0  0  0  0  0  0  0  0  0
   24.8240   14.0400   24.2780 C   0  0  3  0  0  0  0  0  0  0  0  0
   25.1090   13.7090   25.2770 H   0  0  0  0  0  0  0  0  0  0  0  0
   22.2260   10.1380   24.4290 C   0  0  3  0  0  0  0  0  0  0  0  0
   23.1120    9.6280   24.8060 H   0  0  0  0  0  0  0  0  0  0  0  0
   29.0960   11.0120   21.7030 C   0  0  0  0  0  0  0  0  0  0  0  0
   29.7880   11.0740   22.5430 H   0  0  0  0  0  0  0  0  0  0  0  0
   28.7150   10.0040   21.5410 H   0  0  0  0  0  0  0  0  0  0  0  0
   29.6680   11.3510   20.8390 H   0  0  0  0  0  0  0  0  0  0  0  0
   22.7500   10.9840   23.2440 C   0  0  3  0  0  0  0  0  0  0  0  0
   21.9310   11.5870   22.8520 H   0  0  0  0  0  0  0  0  0  0  0  0
   21.0040   10.0590   26.6180 N   0  3  0  0  0  0  0  0  0  0  0  0
   20.4440    9.3410   26.1810 H   0  0  0  0  0  0  0  0  0  0  0  0
   21.6960    9.6290   27.2150 H   0  0  0  0  0  0  0  0  0  0  0  0
   25.9260   13.8440   23.3410 N   0  0  0  0  0  0  0  0  0  0  0  0
   29.3680   13.8690   22.5250 N   0  0  0  0  0  0  0  0  0  0  0  0
   30.1200   13.2450   22.2690 H   0  0  0  0  0  0  0  0  0  0  0  0
   23.8270   11.8630   23.7040 N   0  0  0  0  0  0  0  0  0  0  0  0
   24.7190   11.4580   23.9510 H   0  0  0  0  0  0  0  0  0  0  0  0
   27.5680   13.2710   24.7900 O   0  0  0  0  0  0  0  0  0  0  0  0
   28.9360   15.9740   23.2820 O   0  0  0  0  0  0  0  0  0  0  0  0
   22.5950   13.7100   23.5250 O   0  0  0  0  0  0  0  0  0  0  0  0
   21.2320    9.2070   23.9900 O   0  0  0  0  0  0  0  0  0  0  0  0
   20.4810    9.7130   23.6710 H   0  0  0  0  0  0  0  0  0  0  0  0
   23.0210   13.5220   18.6820 F   0  0  0  0  0  0  0  0  0  0  0  0
   26.8390   10.7710   18.7780 F   0  0  0  0  0  0  0  0  0  0  0  0
  1  2  1  0  0  0  0
  1  3  2  0  0  0  0
  1  5  1  0  0  0  0
  3  4  1  0  0  0  0
  3  7  1  0  0  0  0
  5  6  1  0  0  0  0
  5  9  2  0  0  0  0
  7  8  1  0  0  0  0
  7 17  2  0  0  0  0
  9 10  1  0  0  0  0
  9 17  1  0  0  0  0
 11 12  1  0  0  0  0
 11 18  2  0  0  0  0
 11 19  1  0  0  0  0
 13 14  1  0  0  0  0
 13 18  1  0  0  0  0
 13 20  2  0  0  0  0
 15 16  1  0  0  0  0
 15 19  2  0  0  0  0
 15 20  1  0  0  0  0
 17 47  1  0  0  0  0
 18 50  1  0  0  0  0
 19 88  1  0  0  0  0
 20 89  1  0  0  0  0
 21 42  1  0  0  0  0
 21 78  1  0  0  0  0
 21 83  2  0  0  0  0
 22 43  1  0  0  0  0
 22 79  1  0  0  0  0
 22 84  2  0  0  0  0
 23 65  1  0  0  0  0
 23 81  1  0  0  0  0
 23 85  2  0  0  0  0
 24 25  1  0  0  0  0
 24 26  1  0  0  0  0
 24 30  1  0  0  0  0
 24 42  1  0  0  0  0
 27 28  1  0  0  0  0
 27 29  1  0  0  0  0
 27 36  1  0  0  0  0
 27 40  1  0  0  0  0
 30 31  1  0  0  0  0
 30 32  1  0  0  0  0
 30 78  1  0  0  0  0
 33 34  1  0  0  0  0
 33 35  1  0  0  0  0
 33 36  1  0  0  0  0
 33 75  1  0  0  0  0
 36 37  1  0  0  0  0
 36 38  1  0  0  0  0
 38 39  1  0  0  0  0
 40 41  1  0  0  0  0
 40 67  1  0  0  0  0
 40 75  1  0  0  0  0
 42 53  1  0  0  0  0
 42 79  1  0  0  0  0
 43 44  1  0  0  0  0
 43 45  1  0  0  0  0
 43 46  1  0  0  0  0
 47 48  1  0  0  0  0
 47 49  1  0  0  0  0
 47 62  1  0  0  0  0
 50 51  1  0  0  0  0
 50 52  1  0  0  0  0
 50 73  1  0  0  0  0
 53 54  1  0  0  0  0
 53 61  1  0  0  0  0
 53 69  1  0  0  0  0
 54 55  1  0  0  0  0
 54 56  1  0  0  0  0
 54 60  1  0  0  0  0
 56 57  1  0  0  0  0
 56 58  1  0  0  0  0
 56 59  1  0  0  0  0
 62 63  1  0  0  0  0
 62 64  1  0  0  0  0
 62 65  1  0  0  0  0
 65 66  1  0  0  0  0
 65 78  1  0  0  0  0
 67 68  1  0  0  0  0
 67 73  1  0  0  0  0
 67 86  1  0  0  0  0
 69 70  1  0  0  0  0
 69 71  1  0  0  0  0
 69 72  1  0  0  0  0
 73 74  1  0  0  0  0
 73 81  1  0  0  0  0
 75 76  1  0  0  0  0
 75 77  1  0  0  0  0
 79 80  1  0  0  0  0
 81 82  1  0  0  0  0
 86 87  1  0  0  0  0
M  CHG  1  75   1
M  END
>  <PARENT_CMPD_ID>
CHEMBL1916003

>  <STANDARD_TYPE>
IC50

>  <RELATION>
=

>  <STANDARD_VALUE>
0.89000005

>  <STANDARD_UNITS>
nM

>  <COMPOUND_KEY>
28n

>  <PUBMED_ID>
21782431

>  <JOURNAL>
Bioorg.Med.Chem.Lett.

>  <YEAR>
2011

>  <VOLUME>
21

>  <FIRST_PAGE>
6916

>  <Company>
BMS

>  <idx>
277

>  <Model>
Valid

>  <target>
9.0506096

>  <des_pred_mlr>
6.9990802

>  <RF_Canvas>
7.8919358

>  <DNN_Canvas>
7.7256322

>  <pred_CoMFA>
7.5528998

>  <pred_COMSIA>
7.1598001

>  <pred_abm5>
8.0347986

>  <pred_ff8>
8.4165201

>  <pred_gau6>
8.3409967

>  <CID>
BACE_277

>  <active>
1

>  <des_class_bayes>
1

>  <maacs_class_bayes>
1

>  <radial_class_bayes>
0

>  <dend_class_bayes>
1

>  <molprint_class_bayes>
1

>  <RF_canvas>
1

>  <DNN_canvas>
1

$$$$
mcl886_30
  MOE2015           3D

 77 80  0  0  1  0  0  0  0  0999 V2000
   18.6540   12.1870   29.4810 C   0  0  0  0  0  0  0  0  0  0  0  0
   19.6180   12.6670   30.5620 C   0  0  0  0  0  0  0  0  0  0  0  0
   20.2630   13.5810   29.5250 C   0  0  0  0  0  0  0  0  0  0  0  0
   19.6480   12.7010   28.4120 C   0  0  0  0  0  0  0  0  0  0  0  0
   20.6240   11.6990   27.8220 C   0  0  0  0  0  0  0  0  0  0  0  0
   19.0630   13.4680   27.3480 O   0  0  0  0  0  0  0  0  0  0  0  0
   18.4370   12.7530   26.3630 C   0  0  0  0  0  0  0  0  0  0  0  0
   17.4950   13.4400   25.6990 N   0  0  0  0  0  0  0  0  0  0  0  0
   16.8540   12.7880   24.7160 C   0  0  0  0  0  0  0  0  0  0  0  0
   17.0860   11.4640   24.3770 C   0  0  0  0  0  0  0  0  0  0  0  0
   16.2960   10.8010   23.2900 C   0  0  0  0  0  0  0  0  0  0  0  0
   14.9750   10.1320   23.7190 C   0  0  0  0  0  0  0  0  0  0  0  0
   14.0450   11.1080   24.4410 C   0  0  0  0  0  0  0  0  0  0  0  0
   15.2310    8.9250   24.6210 C   0  0  0  0  0  0  0  0  0  0  0  0
   14.2640    9.6450   22.4520 C   0  0  0  0  0  0  0  0  0  0  0  0
   18.0690   10.7860   25.0890 C   0  0  0  0  0  0  0  0  0  0  0  0
   18.7890   11.4400   26.0890 C   0  0  0  0  0  0  0  0  0  0  0  0
   19.8780   10.7620   26.8660 C   0  0  3  0  0  0  0  0  0  0  0  0
   20.8930   10.0430   26.0110 N   0  3  0  0  0  0  0  0  0  0  0  0
   21.6070   10.8680   24.9750 C   0  0  0  0  0  0  0  0  0  0  0  0
   22.1040    9.9270   23.8800 C   0  0  3  0  0  0  0  0  0  0  0  0
   21.0020    9.1190   23.4540 O   0  0  0  0  0  0  0  0  0  0  0  0
   22.7110   10.7030   22.6990 C   0  0  3  0  0  0  0  0  0  0  0  0
   23.8670   11.4820   23.1270 N   0  0  0  0  0  0  0  0  0  0  0  0
   23.7830   12.8390   23.3400 C   0  0  0  0  0  0  0  0  0  0  0  0
   25.0810   13.4730   23.7430 C   0  0  0  0  0  0  0  0  0  0  0  0
   22.7370   13.4680   23.2440 O   0  0  0  0  0  0  0  0  0  0  0  0
   23.0780    9.7680   21.5330 C   0  0  0  0  0  0  0  0  0  0  0  0
   23.7540   10.5020   20.4110 C   0  0  0  0  0  0  0  0  0  0  0  0
   25.0720   10.2130   20.0890 C   0  0  0  0  0  0  0  0  0  0  0  0
   25.7110   10.9430   19.1050 C   0  0  0  0  0  0  0  0  0  0  0  0
   26.9800   10.6480   18.8180 F   0  0  0  0  0  0  0  0  0  0  0  0
   25.0790   11.9680   18.4220 C   0  0  0  0  0  0  0  0  0  0  0  0
   25.8040   12.7150   17.3590 C   0  0  0  0  0  0  0  0  0  0  0  0
   25.2880   13.6460   17.1020 H   0  0  0  0  0  0  0  0  0  0  0  0
   25.8810   12.1050   16.4530 H   0  0  0  0  0  0  0  0  0  0  0  0
   26.8110   12.9870   17.6930 H   0  0  0  0  0  0  0  0  0  0  0  0
   23.7530   12.2390   18.7260 C   0  0  0  0  0  0  0  0  0  0  0  0
   23.0960   11.5110   19.7100 C   0  0  0  0  0  0  0  0  0  0  0  0
   17.6940   12.7170   29.4850 H   0  0  0  0  0  0  0  0  0  0  0  0
   18.4530   11.1120   29.4880 H   0  0  0  0  0  0  0  0  0  0  0  0
   20.2870   11.8820   30.9340 H   0  0  0  0  0  0  0  0  0  0  0  0
   19.1580   13.1700   31.4170 H   0  0  0  0  0  0  0  0  0  0  0  0
   21.3550   13.6270   29.5640 H   0  0  0  0  0  0  0  0  0  0  0  0
   19.8750   14.6070   29.5440 H   0  0  0  0  0  0  0  0  0  0  0  0
   21.1270   11.1090   28.6000 H   0  0  0  0  0  0  0  0  0  0  0  0
   21.4130   12.2540   27.3000 H   0  0  0  0  0  0  0  0  0  0  0  0
   16.1060   13.3820   24.1960 H   0  0  0  0  0  0  0  0  0  0  0  0
   16.9390   10.0640   22.7900 H   0  0  0  0  0  0  0  0  0  0  0  0
   16.0900   11.5550   22.5160 H   0  0  0  0  0  0  0  0  0  0  0  0
   14.4420   11.4130   25.4150 H   0  0  0  0  0  0  0  0  0  0  0  0
   13.0660   10.6530   24.6300 H   0  0  0  0  0  0  0  0  0  0  0  0
   13.8740   12.0110   23.8440 H   0  0  0  0  0  0  0  0  0  0  0  0
   15.6610    9.2190   25.5850 H   0  0  0  0  0  0  0  0  0  0  0  0
   15.9190    8.2140   24.1500 H   0  0  0  0  0  0  0  0  0  0  0  0
   14.3010    8.3870   24.8380 H   0  0  0  0  0  0  0  0  0  0  0  0
   14.0330   10.4770   21.7780 H   0  0  0  0  0  0  0  0  0  0  0  0
   13.3180    9.1430   22.6900 H   0  0  0  0  0  0  0  0  0  0  0  0
   14.8830    8.9310   21.8980 H   0  0  0  0  0  0  0  0  0  0  0  0
   18.2620    9.7420   24.8550 H   0  0  0  0  0  0  0  0  0  0  0  0
   19.4050    9.9700   27.4610 H   0  0  0  0  0  0  0  0  0  0  0  0
   20.4260    9.2880   25.4780 H   0  0  0  0  0  0  0  0  0  0  0  0
   21.5780    9.5580   26.6060 H   0  0  0  0  0  0  0  0  0  0  0  0
   22.4230   11.3910   25.4810 H   0  0  0  0  0  0  0  0  0  0  0  0
   20.8940   11.5870   24.5640 H   0  0  0  0  0  0  0  0  0  0  0  0
   22.8520    9.2460   24.3030 H   0  0  0  0  0  0  0  0  0  0  0  0
   20.4920    9.5960   22.7710 H   0  0  0  0  0  0  0  0  0  0  0  0
   21.9420   11.3940   22.3280 H   0  0  0  0  0  0  0  0  0  0  0  0
   24.7610   11.0170   23.2510 H   0  0  0  0  0  0  0  0  0  0  0  0
   25.9220   13.0000   23.2270 H   0  0  0  0  0  0  0  0  0  0  0  0
   25.2140   13.3680   24.8230 H   0  0  0  0  0  0  0  0  0  0  0  0
   25.0660   14.5340   23.4790 H   0  0  0  0  0  0  0  0  0  0  0  0
   22.1840    9.2730   21.1340 H   0  0  0  0  0  0  0  0  0  0  0  0
   23.7320    8.9660   21.9010 H   0  0  0  0  0  0  0  0  0  0  0  0
   25.6240    9.4300   20.5980 H   0  0  0  0  0  0  0  0  0  0  0  0
   23.2160   13.0250   18.1990 H   0  0  0  0  0  0  0  0  0  0  0  0
   22.0590   11.7550   19.9330 H   0  0  0  0  0  0  0  0  0  0  0  0
  1  2  1  0  0  0  0
  1  4  1  0  0  0  0
  1 40  1  0  0  0  0
  1 41  1  0  0  0  0
  2  3  1  0  0  0  0
  2 42  1  0  0  0  0
  2 43  1  0  0  0  0
  3  4  1  0  0  0  0
  3 44  1  0  0  0  0
  3 45  1  0  0  0  0
  4  5  1  0  0  0  0
  4  6  1  0  0  0  0
  5 18  1  0  0  0  0
  5 46  1  0  0  0  0
  5 47  1  0  0  0  0
  6  7  1  0  0  0  0
  7  8  1  0  0  0  0
  7 17  2  0  0  0  0
  8  9  2  0  0  0  0
  9 10  1  0  0  0  0
  9 48  1  0  0  0  0
 10 11  1  0  0  0  0
 10 16  2  0  0  0  0
 11 12  1  0  0  0  0
 11 49  1  0  0  0  0
 11 50  1  0  0  0  0
 12 13  1  0  0  0  0
 12 14  1  0  0  0  0
 12 15  1  0  0  0  0
 13 51  1  0  0  0  0
 13 52  1  0  0  0  0
 13 53  1  0  0  0  0
 14 54  1  0  0  0  0
 14 55  1  0  0  0  0
 14 56  1  0  0  0  0
 15 57  1  0  0  0  0
 15 58  1  0  0  0  0
 15 59  1  0  0  0  0
 16 17  1  0  0  0  0
 16 60  1  0  0  0  0
 17 18  1  0  0  0  0
 18 19  1  0  0  0  0
 18 61  1  0  0  0  0
 19 20  1  0  0  0  0
 19 62  1  0  0  0  0
 19 63  1  0  0  0  0
 20 21  1  0  0  0  0
 20 64  1  0  0  0  0
 20 65  1  0  0  0  0
 21 22  1  0  0  0  0
 21 23  1  0  0  0  0
 21 66  1  0  0  0  0
 22 67  1  0  0  0  0
 23 24  1  0  0  0  0
 23 28  1  0  0  0  0
 23 68  1  0  0  0  0
 24 25  1  0  0  0  0
 24 69  1  0  0  0  0
 25 26  1  0  0  0  0
 25 27  2  0  0  0  0
 26 70  1  0  0  0  0
 26 71  1  0  0  0  0
 26 72  1  0  0  0  0
 28 29  1  0  0  0  0
 28 73  1  0  0  0  0
 28 74  1  0  0  0  0
 29 30  1  0  0  0  0
 29 39  2  0  0  0  0
 30 31  2  0  0  0  0
 30 75  1  0  0  0  0
 31 32  1  0  0  0  0
 31 33  1  0  0  0  0
 33 34  1  0  0  0  0
 33 38  2  0  0  0  0
 34 35  1  0  0  0  0
 34 36  1  0  0  0  0
 34 37  1  0  0  0  0
 38 39  1  0  0  0  0
 38 76  1  0  0  0  0
 39 77  1  0  0  0  0
M  CHG  1  19   1
M  END
>  <PARENT_CMPD_ID>
mcl886_30

>  <STANDARD_TYPE>
IC50

>  <RELATION>
=

>  <STANDARD_VALUE>
0.99000001

>  <STANDARD_UNITS>
nM

>  <COMPOUND_KEY>
30

>  <PUBMED_ID>
24900403

>  <JOURNAL>
ACS Med. Chem. Lett.

>  <YEAR>
2012

>  <VOLUME>
3

>  <FIRST_PAGE>
886

>  <Company>
Amgen

>  <idx>
278

>  <Model>
Valid

>  <target>
9.004365

>  <des_pred_mlr>
7.1782398

>  <RF_Canvas>
7.9826579

>  <DNN_Canvas>
7.9641418

>  <pred_CoMFA>
7.9615998

>  <pred_COMSIA>
7.4998999

>  <pred_abm5>
8.0670052

>  <pred_ff8>
7.4292812

>  <pred_gau6>
7.8067818

>  <CID>
BACE_278

>  <active>
1

>  <des_class_bayes>
0

>  <maacs_class_bayes>
1

>  <radial_class_bayes>
1

>  <dend_class_bayes>
1

>  <molprint_class_bayes>
1

>  <RF_canvas>
1

>  <DNN_canvas>
1

$$$$
mcl886_17
  MOE2015           3D

 74 77  0  0  1  0  0  0  0  0999 V2000
   18.6640   12.1760   29.4650 C   0  0  0  0  0  0  0  0  0  0  0  0
   19.6240   12.6580   30.5490 C   0  0  0  0  0  0  0  0  0  0  0  0
   20.2700   13.5730   29.5130 C   0  0  0  0  0  0  0  0  0  0  0  0
   19.6580   12.6950   28.3980 C   0  0  0  0  0  0  0  0  0  0  0  0
   20.6360   11.6960   27.8030 C   0  0  0  0  0  0  0  0  0  0  0  0
   19.0700   13.4640   27.3370 O   0  0  0  0  0  0  0  0  0  0  0  0
   18.4430   12.7510   26.3530 C   0  0  0  0  0  0  0  0  0  0  0  0
   17.4960   13.4370   25.6950 N   0  0  0  0  0  0  0  0  0  0  0  0
   16.8510   12.7860   24.7130 C   0  0  0  0  0  0  0  0  0  0  0  0
   17.0850   11.4630   24.3700 C   0  0  0  0  0  0  0  0  0  0  0  0
   16.2910   10.8010   23.2850 C   0  0  0  0  0  0  0  0  0  0  0  0
   14.9730   10.1310   23.7180 C   0  0  0  0  0  0  0  0  0  0  0  0
   14.0440   11.1060   24.4410 C   0  0  0  0  0  0  0  0  0  0  0  0
   15.2330    8.9250   24.6210 C   0  0  0  0  0  0  0  0  0  0  0  0
   14.2590    9.6420   22.4540 C   0  0  0  0  0  0  0  0  0  0  0  0
   18.0740   10.7860   25.0750 C   0  0  0  0  0  0  0  0  0  0  0  0
   18.7980   11.4390   26.0720 C   0  0  0  0  0  0  0  0  0  0  0  0
   19.8920   10.7620   26.8420 C   0  0  3  0  0  0  0  0  0  0  0  0
   20.9070   10.0460   25.9830 N   0  3  0  0  0  0  0  0  0  0  0  0
   21.6210   10.8720   24.9450 C   0  0  0  0  0  0  0  0  0  0  0  0
   22.1250    9.9330   23.8470 C   0  0  3  0  0  0  0  0  0  0  0  0
   21.0210    9.1240   23.4250 O   0  0  0  0  0  0  0  0  0  0  0  0
   22.7380   10.7170   22.6690 C   0  0  3  0  0  0  0  0  0  0  0  0
   23.8850   11.5000   23.1140 N   0  0  0  0  0  0  0  0  0  0  0  0
   23.7920   12.8540   23.3350 C   0  0  0  0  0  0  0  0  0  0  0  0
   25.0850   13.4920   23.7470 C   0  0  0  0  0  0  0  0  0  0  0  0
   22.7420   13.4770   23.2410 O   0  0  0  0  0  0  0  0  0  0  0  0
   23.1320    9.8050   21.4900 C   0  0  0  0  0  0  0  0  0  0  0  0
   23.7770   10.5660   20.3620 C   0  0  0  0  0  0  0  0  0  0  0  0
   25.0960   10.3140   20.0030 C   0  0  0  0  0  0  0  0  0  0  0  0
   25.6930   11.0660   19.0030 C   0  0  0  0  0  0  0  0  0  0  0  0
   25.0160   12.0660   18.3370 C   0  0  0  0  0  0  0  0  0  0  0  0
   25.5110   12.6380   17.5600 H   0  0  0  0  0  0  0  0  0  0  0  0
   23.7000   12.3130   18.6800 C   0  0  0  0  0  0  0  0  0  0  0  0
   23.0830   11.5650   19.6790 C   0  0  0  0  0  0  0  0  0  0  0  0
   17.7020   12.7020   29.4690 H   0  0  0  0  0  0  0  0  0  0  0  0
   18.4680   11.1000   29.4710 H   0  0  0  0  0  0  0  0  0  0  0  0
   20.2940   11.8750   30.9220 H   0  0  0  0  0  0  0  0  0  0  0  0
   19.1620   13.1610   31.4020 H   0  0  0  0  0  0  0  0  0  0  0  0
   21.3630   13.6200   29.5540 H   0  0  0  0  0  0  0  0  0  0  0  0
   19.8820   14.5990   29.5330 H   0  0  0  0  0  0  0  0  0  0  0  0
   21.1400   11.1060   28.5780 H   0  0  0  0  0  0  0  0  0  0  0  0
   21.4220   12.2550   27.2810 H   0  0  0  0  0  0  0  0  0  0  0  0
   16.0990   13.3790   24.1990 H   0  0  0  0  0  0  0  0  0  0  0  0
   16.9340   10.0640   22.7820 H   0  0  0  0  0  0  0  0  0  0  0  0
   16.0830   11.5560   22.5130 H   0  0  0  0  0  0  0  0  0  0  0  0
   14.4430   11.4120   25.4140 H   0  0  0  0  0  0  0  0  0  0  0  0
   13.0650   10.6500   24.6330 H   0  0  0  0  0  0  0  0  0  0  0  0
   13.8700   12.0090   23.8450 H   0  0  0  0  0  0  0  0  0  0  0  0
   15.6640    9.2200   25.5830 H   0  0  0  0  0  0  0  0  0  0  0  0
   15.9210    8.2150   24.1490 H   0  0  0  0  0  0  0  0  0  0  0  0
   14.3040    8.3860   24.8400 H   0  0  0  0  0  0  0  0  0  0  0  0
   14.0260   10.4730   21.7790 H   0  0  0  0  0  0  0  0  0  0  0  0
   13.3150    9.1400   22.6940 H   0  0  0  0  0  0  0  0  0  0  0  0
   14.8780    8.9280   21.8980 H   0  0  0  0  0  0  0  0  0  0  0  0
   18.2700    9.7440   24.8360 H   0  0  0  0  0  0  0  0  0  0  0  0
   19.4220    9.9670   27.4360 H   0  0  0  0  0  0  0  0  0  0  0  0
   20.4400    9.2930   25.4480 H   0  0  0  0  0  0  0  0  0  0  0  0
   21.5930    9.5600   26.5760 H   0  0  0  0  0  0  0  0  0  0  0  0
   22.4340   11.3980   25.4520 H   0  0  0  0  0  0  0  0  0  0  0  0
   20.9050   11.5870   24.5340 H   0  0  0  0  0  0  0  0  0  0  0  0
   22.8740    9.2520   24.2710 H   0  0  0  0  0  0  0  0  0  0  0  0
   20.5280    9.5880   22.7210 H   0  0  0  0  0  0  0  0  0  0  0  0
   21.9660   11.4050   22.2990 H   0  0  0  0  0  0  0  0  0  0  0  0
   24.7810   11.0380   23.2420 H   0  0  0  0  0  0  0  0  0  0  0  0
   25.9290   13.0350   23.2220 H   0  0  0  0  0  0  0  0  0  0  0  0
   25.2200   13.3700   24.8250 H   0  0  0  0  0  0  0  0  0  0  0  0
   25.0610   14.5580   23.5010 H   0  0  0  0  0  0  0  0  0  0  0  0
   22.2520    9.2830   21.0940 H   0  0  0  0  0  0  0  0  0  0  0  0
   23.8160    9.0250   21.8480 H   0  0  0  0  0  0  0  0  0  0  0  0
   25.6810    9.5440   20.4970 H   0  0  0  0  0  0  0  0  0  0  0  0
   26.9620   10.8180   18.6790 F   0  0  0  0  0  0  0  0  0  0  0  0
   23.1440   13.0940   18.1670 H   0  0  0  0  0  0  0  0  0  0  0  0
   22.0470   11.7870   19.9260 H   0  0  0  0  0  0  0  0  0  0  0  0
  1  2  1  0  0  0  0
  1  4  1  0  0  0  0
  1 36  1  0  0  0  0
  1 37  1  0  0  0  0
  2  3  1  0  0  0  0
  2 38  1  0  0  0  0
  2 39  1  0  0  0  0
  3  4  1  0  0  0  0
  3 40  1  0  0  0  0
  3 41  1  0  0  0  0
  4  5  1  0  0  0  0
  4  6  1  0  0  0  0
  5 18  1  0  0  0  0
  5 42  1  0  0  0  0
  5 43  1  0  0  0  0
  6  7  1  0  0  0  0
  7  8  1  0  0  0  0
  7 17  2  0  0  0  0
  8  9  2  0  0  0  0
  9 10  1  0  0  0  0
  9 44  1  0  0  0  0
 10 11  1  0  0  0  0
 10 16  2  0  0  0  0
 11 12  1  0  0  0  0
 11 45  1  0  0  0  0
 11 46  1  0  0  0  0
 12 13  1  0  0  0  0
 12 14  1  0  0  0  0
 12 15  1  0  0  0  0
 13 47  1  0  0  0  0
 13 48  1  0  0  0  0
 13 49  1  0  0  0  0
 14 50  1  0  0  0  0
 14 51  1  0  0  0  0
 14 52  1  0  0  0  0
 15 53  1  0  0  0  0
 15 54  1  0  0  0  0
 15 55  1  0  0  0  0
 16 17  1  0  0  0  0
 16 56  1  0  0  0  0
 17 18  1  0  0  0  0
 18 19  1  0  0  0  0
 18 57  1  0  0  0  0
 19 20  1  0  0  0  0
 19 58  1  0  0  0  0
 19 59  1  0  0  0  0
 20 21  1  0  0  0  0
 20 60  1  0  0  0  0
 20 61  1  0  0  0  0
 21 22  1  0  0  0  0
 21 23  1  0  0  0  0
 21 62  1  0  0  0  0
 22 63  1  0  0  0  0
 23 24  1  0  0  0  0
 23 28  1  0  0  0  0
 23 64  1  0  0  0  0
 24 25  1  0  0  0  0
 24 65  1  0  0  0  0
 25 26  1  0  0  0  0
 25 27  2  0  0  0  0
 26 66  1  0  0  0  0
 26 67  1  0  0  0  0
 26 68  1  0  0  0  0
 28 29  1  0  0  0  0
 28 69  1  0  0  0  0
 28 70  1  0  0  0  0
 29 30  1  0  0  0  0
 29 35  2  0  0  0  0
 30 31  2  0  0  0  0
 30 71  1  0  0  0  0
 31 32  1  0  0  0  0
 31 72  1  0  0  0  0
 32 33  1  0  0  0  0
 32 34  2  0  0  0  0
 34 35  1  0  0  0  0
 34 73  1  0  0  0  0
 35 74  1  0  0  0  0
M  CHG  1  19   1
M  END
>  <PARENT_CMPD_ID>
mcl886_17

>  <STANDARD_TYPE>
IC50

>  <RELATION>
=

>  <STANDARD_VALUE>
1

>  <STANDARD_UNITS>
nM

>  <COMPOUND_KEY>
17

>  <PUBMED_ID>
24900403

>  <JOURNAL>
ACS Med. Chem. Lett.

>  <YEAR>
2012

>  <VOLUME>
3

>  <FIRST_PAGE>
886

>  <Company>
Amgen

>  <idx>
279

>  <Model>
Valid

>  <target>
9

>  <des_pred_mlr>
7.0460801

>  <RF_Canvas>
7.9674354

>  <DNN_Canvas>
7.7855392

>  <pred_CoMFA>
7.9397001

>  <pred_COMSIA>
7.3923001

>  <pred_abm5>
8.0417986

>  <pred_ff8>
7.5164547

>  <pred_gau6>
7.7694402

>  <CID>
BACE_279

>  <active>
1

>  <des_class_bayes>
0

>  <maacs_class_bayes>
1

>  <radial_class_bayes>
0

>  <dend_class_bayes>
1

>  <molprint_class_bayes>
1

>  <RF_canvas>
1

>  <DNN_canvas>
1

$$$$
CHEMBL555517
  MOE2015           3D

 91 93  0  0  1  0  0  0  0  0999 V2000
   26.8960   12.2020   28.0010 C   0  0  0  0  0  0  0  0  0  0  0  0
   27.7070   12.2490   26.7170 C   0  0  0  0  0  0  0  0  0  0  0  0
   28.3420   13.6240   26.5070 C   0  0  0  0  0  0  0  0  0  0  0  0
   29.0810   13.6870   25.2390 N   0  0  0  0  0  0  0  0  0  0  0  0
   30.4840   13.2610   25.2710 C   0  0  0  0  0  0  0  0  0  0  0  0
   31.4170   14.4310   25.5830 C   0  0  0  0  0  0  0  0  0  0  0  0
   32.8710   13.9910   25.6150 C   0  0  0  0  0  0  0  0  0  0  0  0
   28.5550   14.1140   24.0150 C   0  0  0  0  0  0  0  0  0  0  0  0
   29.2010   14.1280   22.9760 O   0  0  0  0  0  0  0  0  0  0  0  0
   27.1650   14.6010   23.9770 C   0  0  0  0  0  0  0  0  0  0  0  0
   26.9050   15.8830   24.4370 C   0  0  0  0  0  0  0  0  0  0  0  0
   25.5870   16.2800   24.5720 C   0  0  0  0  0  0  0  0  0  0  0  0
   24.5360   15.4250   24.2610 C   0  0  0  0  0  0  0  0  0  0  0  0
   24.8040   14.1480   23.7680 C   0  0  0  0  0  0  0  0  0  0  0  0
   26.1320   13.7470   23.5910 C   0  0  0  0  0  0  0  0  0  0  0  0
   23.6380   13.2660   23.4810 C   0  0  0  0  0  0  0  0  0  0  0  0
   22.4990   13.7130   23.3970 O   0  0  0  0  0  0  0  0  0  0  0  0
   23.8850   11.9180   23.3690 N   0  0  0  0  0  0  0  0  0  0  0  0
   22.8480   10.9710   22.9660 C   0  0  3  0  0  0  0  0  0  0  0  0
   23.3760   10.0410   21.8610 C   0  0  0  0  0  0  0  0  0  0  0  0
   23.9160   10.8010   20.6790 C   0  0  0  0  0  0  0  0  0  0  0  0
   25.2360   10.6180   20.2710 C   0  0  0  0  0  0  0  0  0  0  0  0
   25.7480   11.3610   19.2190 C   0  0  0  0  0  0  0  0  0  0  0  0
   27.0160   11.1760   18.8520 F   0  0  0  0  0  0  0  0  0  0  0  0
   24.9760   12.2890   18.5520 C   0  0  0  0  0  0  0  0  0  0  0  0
   23.6660   12.4600   18.9470 C   0  0  0  0  0  0  0  0  0  0  0  0
   22.9010   13.3540   18.3190 F   0  0  0  0  0  0  0  0  0  0  0  0
   23.1270   11.7240   19.9900 C   0  0  0  0  0  0  0  0  0  0  0  0
   22.3390   10.2140   24.2040 C   0  0  3  0  0  0  0  0  0  0  0  0
   23.4360    9.7020   24.9630 O   0  0  0  0  0  0  0  0  0  0  0  0
   21.5140   11.1340   25.1040 C   0  0  0  0  0  0  0  0  0  0  0  0
   20.8680   10.3000   26.1750 N   0  3  0  0  0  0  0  0  0  0  0  0
   19.9230   11.0520   27.0600 C   0  0  0  0  0  0  0  0  0  0  0  0
   18.7240   11.5820   26.3200 C   0  0  0  0  0  0  0  0  0  0  0  0
   18.4320   12.9460   26.3240 C   0  0  0  0  0  0  0  0  0  0  0  0
   17.3710   13.4440   25.5750 C   0  0  0  0  0  0  0  0  0  0  0  0
   16.5920   12.5840   24.8120 C   0  0  0  0  0  0  0  0  0  0  0  0
   16.8450   11.2190   24.8270 C   0  0  0  0  0  0  0  0  0  0  0  0
   16.0680   10.4350   24.0210 O   0  0  0  0  0  0  0  0  0  0  0  0
   15.6370    9.2280   24.6370 C   0  0  0  0  0  0  0  0  0  0  0  0
   17.9040   10.7210   25.5820 C   0  0  0  0  0  0  0  0  0  0  0  0
   25.3050   17.6200   25.1020 C   0  0  0  0  0  0  0  0  0  0  0  0
   24.9230   18.6440   24.4010 N   0  0  0  0  0  0  0  0  0  0  0  0
   24.8260   18.3300   23.0380 O   0  0  0  0  0  0  0  0  0  0  0  0
   24.4840   19.5160   22.3320 C   0  0  0  0  0  0  0  0  0  0  0  0
   25.4960   17.7920   26.5790 C   0  0  0  0  0  0  0  0  0  0  0  0
   26.4550   11.2090   28.1350 H   0  0  0  0  0  0  0  0  0  0  0  0
   26.0820   12.9340   27.9770 H   0  0  0  0  0  0  0  0  0  0  0  0
   27.5250   12.4150   28.8710 H   0  0  0  0  0  0  0  0  0  0  0  0
   27.0570   11.9970   25.8720 H   0  0  0  0  0  0  0  0  0  0  0  0
   28.4850   11.4770   26.7520 H   0  0  0  0  0  0  0  0  0  0  0  0
   29.0340   13.8570   27.3240 H   0  0  0  0  0  0  0  0  0  0  0  0
   27.5640   14.3900   26.5290 H   0  0  0  0  0  0  0  0  0  0  0  0
   30.5940   12.4660   26.0170 H   0  0  0  0  0  0  0  0  0  0  0  0
   30.7520   12.8280   24.3000 H   0  0  0  0  0  0  0  0  0  0  0  0
   31.2930   15.2190   24.8310 H   0  0  0  0  0  0  0  0  0  0  0  0
   31.1520   14.8760   26.5500 H   0  0  0  0  0  0  0  0  0  0  0  0
   33.1760   13.5760   24.6490 H   0  0  0  0  0  0  0  0  0  0  0  0
   33.0320   13.2280   26.3830 H   0  0  0  0  0  0  0  0  0  0  0  0
   33.5200   14.8420   25.8400 H   0  0  0  0  0  0  0  0  0  0  0  0
   27.7200   16.5470   24.7150 H   0  0  0  0  0  0  0  0  0  0  0  0
   23.5100   15.7630   24.3920 H   0  0  0  0  0  0  0  0  0  0  0  0
   26.3920   12.7700   23.1950 H   0  0  0  0  0  0  0  0  0  0  0  0
   24.7970   11.5350   23.5830 H   0  0  0  0  0  0  0  0  0  0  0  0
   22.0000   11.5290   22.5500 H   0  0  0  0  0  0  0  0  0  0  0  0
   24.1620    9.3920   22.2680 H   0  0  0  0  0  0  0  0  0  0  0  0
   22.5750    9.3760   21.5140 H   0  0  0  0  0  0  0  0  0  0  0  0
   25.8890    9.9060   20.7680 H   0  0  0  0  0  0  0  0  0  0  0  0
   25.3880   12.8690   17.7360 H   0  0  0  0  0  0  0  0  0  0  0  0
   22.0910   11.9000   20.2630 H   0  0  0  0  0  0  0  0  0  0  0  0
   21.7200    9.3660   23.8870 H   0  0  0  0  0  0  0  0  0  0  0  0
   23.8710    8.9970   24.4490 H   0  0  0  0  0  0  0  0  0  0  0  0
   20.7190   11.6250   24.5360 H   0  0  0  0  0  0  0  0  0  0  0  0
   22.1310   11.8720   25.6260 H   0  0  0  0  0  0  0  0  0  0  0  0
   20.3800    9.4990   25.7580 H   0  0  0  0  0  0  0  0  0  0  0  0
   21.6330    9.8960   26.7360 H   0  0  0  0  0  0  0  0  0  0  0  0
   19.6020   10.3510   27.8380 H   0  0  0  0  0  0  0  0  0  0  0  0
   20.5020   11.8500   27.5360 H   0  0  0  0  0  0  0  0  0  0  0  0
   19.0390   13.6470   26.8940 H   0  0  0  0  0  0  0  0  0  0  0  0
   17.1610   14.5110   25.5700 H   0  0  0  0  0  0  0  0  0  0  0  0
   15.7780   12.9790   24.2090 H   0  0  0  0  0  0  0  0  0  0  0  0
   14.7740    8.8560   24.0750 H   0  0  0  0  0  0  0  0  0  0  0  0
   15.3180    9.3850   25.6730 H   0  0  0  0  0  0  0  0  0  0  0  0
   16.4210    8.4660   24.5840 H   0  0  0  0  0  0  0  0  0  0  0  0
   18.1090    9.6550   25.5680 H   0  0  0  0  0  0  0  0  0  0  0  0
   24.4060   19.2750   21.2690 H   0  0  0  0  0  0  0  0  0  0  0  0
   25.2610   20.2750   22.4650 H   0  0  0  0  0  0  0  0  0  0  0  0
   23.5190   19.8990   22.6780 H   0  0  0  0  0  0  0  0  0  0  0  0
   25.7270   16.8450   27.0750 H   0  0  0  0  0  0  0  0  0  0  0  0
   24.5800   18.2000   27.0170 H   0  0  0  0  0  0  0  0  0  0  0  0
   26.3160   18.4940   26.7570 H   0  0  0  0  0  0  0  0  0  0  0  0
  1  2  1  0  0  0  0
  1 47  1  0  0  0  0
  1 48  1  0  0  0  0
  1 49  1  0  0  0  0
  2  3  1  0  0  0  0
  2 50  1  0  0  0  0
  2 51  1  0  0  0  0
  3  4  1  0  0  0  0
  3 52  1  0  0  0  0
  3 53  1  0  0  0  0
  4  5  1  0  0  0  0
  4  8  1  0  0  0  0
  5  6  1  0  0  0  0
  5 54  1  0  0  0  0
  5 55  1  0  0  0  0
  6  7  1  0  0  0  0
  6 56  1  0  0  0  0
  6 57  1  0  0  0  0
  7 58  1  0  0  0  0
  7 59  1  0  0  0  0
  7 60  1  0  0  0  0
  8  9  2  0  0  0  0
  8 10  1  0  0  0  0
 10 11  1  0  0  0  0
 10 15  2  0  0  0  0
 11 12  2  0  0  0  0
 11 61  1  0  0  0  0
 12 13  1  0  0  0  0
 12 42  1  0  0  0  0
 13 14  2  0  0  0  0
 13 62  1  0  0  0  0
 14 15  1  0  0  0  0
 14 16  1  0  0  0  0
 15 63  1  0  0  0  0
 16 17  2  0  0  0  0
 16 18  1  0  0  0  0
 18 19  1  0  0  0  0
 18 64  1  0  0  0  0
 19 20  1  0  0  0  0
 19 29  1  0  0  0  0
 19 65  1  0  0  0  0
 20 21  1  0  0  0  0
 20 66  1  0  0  0  0
 20 67  1  0  0  0  0
 21 22  1  0  0  0  0
 21 28  2  0  0  0  0
 22 23  2  0  0  0  0
 22 68  1  0  0  0  0
 23 24  1  0  0  0  0
 23 25  1  0  0  0  0
 25 26  2  0  0  0  0
 25 69  1  0  0  0  0
 26 27  1  0  0  0  0
 26 28  1  0  0  0  0
 28 70  1  0  0  0  0
 29 30  1  0  0  0  0
 29 31  1  0  0  0  0
 29 71  1  0  0  0  0
 30 72  1  0  0  0  0
 31 32  1  0  0  0  0
 31 73  1  0  0  0  0
 31 74  1  0  0  0  0
 32 33  1  0  0  0  0
 32 75  1  0  0  0  0
 32 76  1  0  0  0  0
 33 34  1  0  0  0  0
 33 77  1  0  0  0  0
 33 78  1  0  0  0  0
 34 35  1  0  0  0  0
 34 41  2  0  0  0  0
 35 36  2  0  0  0  0
 35 79  1  0  0  0  0
 36 37  1  0  0  0  0
 36 80  1  0  0  0  0
 37 38  2  0  0  0  0
 37 81  1  0  0  0  0
 38 39  1  0  0  0  0
 38 41  1  0  0  0  0
 39 40  1  0  0  0  0
 40 82  1  0  0  0  0
 40 83  1  0  0  0  0
 40 84  1  0  0  0  0
 41 85  1  0  0  0  0
 42 43  2  0  0  0  0
 42 46  1  0  0  0  0
 43 44  1  0  0  0  0
 44 45  1  0  0  0  0
 45 86  1  0  0  0  0
 45 87  1  0  0  0  0
 45 88  1  0  0  0  0
 46 89  1  0  0  0  0
 46 90  1  0  0  0  0
 46 91  1  0  0  0  0
M  CHG  1  32   1
M  END
>  <PARENT_CMPD_ID>
CHEMBL555517

>  <STANDARD_TYPE>
IC50

>  <RELATION>
=

>  <STANDARD_VALUE>
1

>  <STANDARD_UNITS>
nM

>  <COMPOUND_KEY>
1f

>  <PUBMED_ID>
19375914

>  <JOURNAL>
Bioorg. Med. Chem. Lett.

>  <YEAR>
2009

>  <VOLUME>
19

>  <FIRST_PAGE>
2654

>  <Company>
BMS

>  <idx>
280

>  <Model>
Valid

>  <target>
9

>  <des_pred_mlr>
7.63311

>  <RF_Canvas>
7.4606147

>  <DNN_Canvas>
7.4479532

>  <pred_CoMFA>
6.4485998

>  <pred_COMSIA>
7.5998998

>  <pred_abm5>
6.4503798

>  <pred_ff8>
2.0997715

>  <pred_gau6>
6.4683318

>  <CID>
BACE_280

>  <active>
1

>  <des_class_bayes>
1

>  <maacs_class_bayes>
0

>  <radial_class_bayes>
0

>  <dend_class_bayes>
1

>  <molprint_class_bayes>
1

>  <RF_canvas>
1

>  <DNN_canvas>
1

$$$$
CHEMBL595016
  MOE2015           3D

 94 97  0  0  1  0  0  0  0  0999 V2000
   24.2370   11.5330   23.0490 N   0  0  0  0  0  0  0  0  0  0  0  0
   23.0700   10.7480   22.6550 C   0  0  3  0  0  0  0  0  0  0  0  0
   23.4620    9.7150   21.5720 C   0  0  0  0  0  0  0  0  0  0  0  0
   24.2020   10.3430   20.4160 C   0  0  0  0  0  0  0  0  0  0  0  0
   25.5980   10.2490   20.3440 C   0  0  0  0  0  0  0  0  0  0  0  0
   26.3140   10.9260   19.3610 C   0  0  0  0  0  0  0  0  0  0  0  0
   25.6110   11.6690   18.4150 C   0  0  0  0  0  0  0  0  0  0  0  0
   24.2240   11.7380   18.4530 C   0  0  0  0  0  0  0  0  0  0  0  0
   23.5220   11.0850   19.4550 C   0  0  0  0  0  0  0  0  0  0  0  0
   27.6710   10.9910   19.2400 O   0  0  0  0  0  0  0  0  0  0  0  0
   28.4910   10.1390   20.0330 C   0  0  0  0  0  0  0  0  0  0  0  0
   29.8340   10.8340   20.2540 C   0  0  0  0  0  0  0  0  0  0  0  0
   29.7090   12.1030   21.0940 C   0  0  0  0  0  0  0  0  0  0  0  0
   29.5070   11.8190   22.5820 C   0  0  0  0  0  0  0  0  0  0  0  0
   29.2180   13.0520   23.2840 N   0  0  0  0  0  0  0  0  0  0  0  0
   27.9690   13.6140   23.4420 C   0  0  0  0  0  0  0  0  0  0  0  0
   26.7660   12.9670   23.1450 C   0  0  0  0  0  0  0  0  0  0  0  0
   25.5270   13.5900   23.3430 C   0  0  0  0  0  0  0  0  0  0  0  0
   25.4860   14.9090   23.7720 C   0  0  0  0  0  0  0  0  0  0  0  0
   26.6730   15.5880   23.9870 C   0  0  0  0  0  0  0  0  0  0  0  0
   27.8930   14.9350   23.8700 C   0  0  0  0  0  0  0  0  0  0  0  0
   24.2300   12.9120   23.0650 C   0  0  0  0  0  0  0  0  0  0  0  0
   23.2120   13.5690   22.8790 O   0  0  0  0  0  0  0  0  0  0  0  0
   22.4370   10.0730   23.8920 C   0  0  3  0  0  0  0  0  0  0  0  0
   21.2690    9.3130   23.5550 O   0  0  0  0  0  0  0  0  0  0  0  0
   22.0070   11.1220   24.9260 C   0  0  0  0  0  0  0  0  0  0  0  0
   21.3020   10.4210   26.0500 N   0  3  0  0  0  0  0  0  0  0  0  0
   20.4180   11.2780   26.8950 C   0  0  0  0  0  0  0  0  0  0  0  0
   21.0640   12.0380   27.3490 H   0  0  0  0  0  0  0  0  0  0  0  0
   20.0470   10.6350   27.7010 H   0  0  0  0  0  0  0  0  0  0  0  0
   19.2580   11.8910   26.1640 C   0  0  0  0  0  0  0  0  0  0  0  0
   18.2620   11.0880   25.5970 C   0  0  0  0  0  0  0  0  0  0  0  0
   17.1740   11.6440   24.9190 C   0  0  0  0  0  0  0  0  0  0  0  0
   17.1070   13.0320   24.8000 C   0  0  0  0  0  0  0  0  0  0  0  0
   18.0880   13.8410   25.3540 C   0  0  0  0  0  0  0  0  0  0  0  0
   19.1570   13.2750   26.0340 C   0  0  0  0  0  0  0  0  0  0  0  0
   16.0900   10.7990   24.2870 C   0  0  0  0  0  0  0  0  0  0  0  0
   16.5110   10.3510   22.8960 C   0  0  0  0  0  0  0  0  0  0  0  0
   15.6780    9.5980   25.1300 C   0  0  0  0  0  0  0  0  0  0  0  0
   25.0760   11.0290   23.3090 H   0  0  0  0  0  0  0  0  0  0  0  0
   22.3250   11.4200   22.2080 H   0  0  0  0  0  0  0  0  0  0  0  0
   22.5670    9.2080   21.1900 H   0  0  0  0  0  0  0  0  0  0  0  0
   24.0850    8.9290   22.0190 H   0  0  0  0  0  0  0  0  0  0  0  0
   26.1000    9.6510   21.0950 H   0  0  0  0  0  0  0  0  0  0  0  0
   26.1540   12.2070   17.6410 H   0  0  0  0  0  0  0  0  0  0  0  0
   23.6890   12.3250   17.7100 H   0  0  0  0  0  0  0  0  0  0  0  0
   22.4390   11.1760   19.4890 H   0  0  0  0  0  0  0  0  0  0  0  0
   28.6440    9.2040   19.4840 H   0  0  0  0  0  0  0  0  0  0  0  0
   28.0650    9.8990   21.0080 H   0  0  0  0  0  0  0  0  0  0  0  0
   30.2480   11.1130   19.2780 H   0  0  0  0  0  0  0  0  0  0  0  0
   30.5400   10.1390   20.7240 H   0  0  0  0  0  0  0  0  0  0  0  0
   28.9000   12.7330   20.7070 H   0  0  0  0  0  0  0  0  0  0  0  0
   30.6290   12.6920   20.9770 H   0  0  0  0  0  0  0  0  0  0  0  0
   30.4390   11.4070   22.9870 H   0  0  0  0  0  0  0  0  0  0  0  0
   28.7440   11.0600   22.7710 H   0  0  0  0  0  0  0  0  0  0  0  0
   30.0130   13.5460   23.6770 H   0  0  0  0  0  0  0  0  0  0  0  0
   26.8040   11.9650   22.7380 H   0  0  0  0  0  0  0  0  0  0  0  0
   24.5340   15.4120   23.9130 H   0  0  0  0  0  0  0  0  0  0  0  0
   28.8060   15.4870   24.0800 H   0  0  0  0  0  0  0  0  0  0  0  0
   23.1530    9.3800   24.3520 H   0  0  0  0  0  0  0  0  0  0  0  0
   20.7740    9.7870   22.8590 H   0  0  0  0  0  0  0  0  0  0  0  0
   21.2990   11.8220   24.4750 H   0  0  0  0  0  0  0  0  0  0  0  0
   22.8460   11.6670   25.3680 H   0  0  0  0  0  0  0  0  0  0  0  0
   21.9830    9.9280   26.6410 H   0  0  0  0  0  0  0  0  0  0  0  0
   20.7450    9.6820   25.5930 H   0  0  0  0  0  0  0  0  0  0  0  0
   18.3320   10.0070   25.6930 H   0  0  0  0  0  0  0  0  0  0  0  0
   16.2800   13.5000   24.2680 H   0  0  0  0  0  0  0  0  0  0  0  0
   18.0150   14.9220   25.2550 H   0  0  0  0  0  0  0  0  0  0  0  0
   19.9110   13.9340   26.4600 H   0  0  0  0  0  0  0  0  0  0  0  0
   15.1920   11.4220   24.1820 H   0  0  0  0  0  0  0  0  0  0  0  0
   17.4030    9.7140   22.9290 H   0  0  0  0  0  0  0  0  0  0  0  0
   16.7440   11.2090   22.2550 H   0  0  0  0  0  0  0  0  0  0  0  0
   15.7110    9.7820   22.4100 H   0  0  0  0  0  0  0  0  0  0  0  0
   16.4670    8.8420   25.1940 H   0  0  0  0  0  0  0  0  0  0  0  0
   14.7980    9.1100   24.6950 H   0  0  0  0  0  0  0  0  0  0  0  0
   15.4180    9.9020   26.1500 H   0  0  0  0  0  0  0  0  0  0  0  0
   26.6900   16.9610   24.3680 N   0  0  0  0  0  0  0  0  0  0  0  0
   25.8970   17.8970   23.5480 C   0  0  0  0  0  0  0  0  0  0  0  0
   24.8290   17.8160   23.7720 H   0  0  0  0  0  0  0  0  0  0  0  0
   26.0490   17.6920   22.4830 H   0  0  0  0  0  0  0  0  0  0  0  0
   26.2190   18.9280   23.7200 H   0  0  0  0  0  0  0  0  0  0  0  0
   26.7920   17.2780   26.0300 S   0  0  0  0  0  0  0  0  0  0  0  0
   27.9730   18.6150   26.0530 C   0  0  0  0  0  0  0  0  0  0  0  0
   27.5400   19.4580   25.5060 H   0  0  0  0  0  0  0  0  0  0  0  0
   28.8710   18.2670   25.5320 H   0  0  0  0  0  0  0  0  0  0  0  0
   28.3090   19.0250   27.4810 C   0  0  0  0  0  0  0  0  0  0  0  0
   29.3030   20.1750   27.5070 C   0  0  0  0  0  0  0  0  0  0  0  0
   29.5320   20.4540   28.5400 H   0  0  0  0  0  0  0  0  0  0  0  0
   28.8980   21.0550   26.9980 H   0  0  0  0  0  0  0  0  0  0  0  0
   30.2400   19.8940   27.0150 H   0  0  0  0  0  0  0  0  0  0  0  0
   28.7290   18.1750   28.0300 H   0  0  0  0  0  0  0  0  0  0  0  0
   27.3970   19.3250   28.0100 H   0  0  0  0  0  0  0  0  0  0  0  0
   25.5130   17.7790   26.4720 O   0  0  0  0  0  0  0  0  0  0  0  0
   27.4110   16.1670   26.7130 O   0  0  0  0  0  0  0  0  0  0  0  0
  1  2  1  0  0  0  0
  1 22  1  0  0  0  0
  1 40  1  0  0  0  0
  2  3  1  0  0  0  0
  2 24  1  0  0  0  0
  2 41  1  0  0  0  0
  3  4  1  0  0  0  0
  3 42  1  0  0  0  0
  3 43  1  0  0  0  0
  4  5  1  0  0  0  0
  4  9  2  0  0  0  0
  5  6  2  0  0  0  0
  5 44  1  0  0  0  0
  6  7  1  0  0  0  0
  6 10  1  0  0  0  0
  7  8  2  0  0  0  0
  7 45  1  0  0  0  0
  8  9  1  0  0  0  0
  8 46  1  0  0  0  0
  9 47  1  0  0  0  0
 10 11  1  0  0  0  0
 11 12  1  0  0  0  0
 11 48  1  0  0  0  0
 11 49  1  0  0  0  0
 12 13  1  0  0  0  0
 12 50  1  0  0  0  0
 12 51  1  0  0  0  0
 13 14  1  0  0  0  0
 13 52  1  0  0  0  0
 13 53  1  0  0  0  0
 14 15  1  0  0  0  0
 14 54  1  0  0  0  0
 14 55  1  0  0  0  0
 15 16  1  0  0  0  0
 15 56  1  0  0  0  0
 16 17  1  0  0  0  0
 16 21  2  0  0  0  0
 17 18  2  0  0  0  0
 17 57  1  0  0  0  0
 18 19  1  0  0  0  0
 18 22  1  0  0  0  0
 19 20  2  0  0  0  0
 19 58  1  0  0  0  0
 20 21  1  0  0  0  0
 20 77  1  0  0  0  0
 21 59  1  0  0  0  0
 22 23  2  0  0  0  0
 24 25  1  0  0  0  0
 24 26  1  0  0  0  0
 24 60  1  0  0  0  0
 25 61  1  0  0  0  0
 26 27  1  0  0  0  0
 26 62  1  0  0  0  0
 26 63  1  0  0  0  0
 27 28  1  0  0  0  0
 27 64  1  0  0  0  0
 27 65  1  0  0  0  0
 28 29  1  0  0  0  0
 28 30  1  0  0  0  0
 28 31  1  0  0  0  0
 31 32  1  0  0  0  0
 31 36  2  0  0  0  0
 32 33  2  0  0  0  0
 32 66  1  0  0  0  0
 33 34  1  0  0  0  0
 33 37  1  0  0  0  0
 34 35  2  0  0  0  0
 34 67  1  0  0  0  0
 35 36  1  0  0  0  0
 35 68  1  0  0  0  0
 36 69  1  0  0  0  0
 37 38  1  0  0  0  0
 37 39  1  0  0  0  0
 37 70  1  0  0  0  0
 38 71  1  0  0  0  0
 38 72  1  0  0  0  0
 38 73  1  0  0  0  0
 39 74  1  0  0  0  0
 39 75  1  0  0  0  0
 39 76  1  0  0  0  0
 77 78  1  0  0  0  0
 77 82  1  0  0  0  0
 78 79  1  0  0  0  0
 78 80  1  0  0  0  0
 78 81  1  0  0  0  0
 82 83  1  0  0  0  0
 82 93  2  0  0  0  0
 82 94  2  0  0  0  0
 83 84  1  0  0  0  0
 83 85  1  0  0  0  0
 83 86  1  0  0  0  0
 86 87  1  0  0  0  0
 86 91  1  0  0  0  0
 86 92  1  0  0  0  0
 87 88  1  0  0  0  0
 87 89  1  0  0  0  0
 87 90  1  0  0  0  0
M  CHG  1  27   1
M  END
>  <PARENT_CMPD_ID>
CHEMBL595016

>  <STANDARD_TYPE>
IC50

>  <RELATION>
=

>  <STANDARD_VALUE>
1

>  <STANDARD_UNITS>
nM

>  <COMPOUND_KEY>
15

>  <PUBMED_ID>
19963375

>  <JOURNAL>
Bioorg. Med. Chem. Lett.

>  <YEAR>
2010

>  <VOLUME>
20

>  <FIRST_PAGE>
603

>  <Company>
Novartis

>  <idx>
281

>  <Model>
Valid

>  <target>
9

>  <des_pred_mlr>
7.9539099

>  <RF_Canvas>
7.5825744

>  <DNN_Canvas>
7.6232224

>  <pred_CoMFA>
7.4970002

>  <pred_COMSIA>
8.2152004

>  <pred_abm5>
7.454711

>  <pred_ff8>
7.2670903

>  <pred_gau6>
8.1839294

>  <CID>
BACE_281

>  <active>
1

>  <des_class_bayes>
1

>  <maacs_class_bayes>
1

>  <radial_class_bayes>
1

>  <dend_class_bayes>
1

>  <molprint_class_bayes>
1

>  <RF_canvas>
1

>  <DNN_canvas>
1

$$$$
CHEMBL595100
  MOE2015           3D

 91 96  0  0  1  0  0  0  0  0999 V2000
   24.2580   11.5820   23.0360 N   0  0  0  0  0  0  0  0  0  0  0  0
   23.0850   10.7970   22.6450 C   0  0  3  0  0  0  0  0  0  0  0  0
   23.4670    9.7560   21.5670 C   0  0  0  0  0  0  0  0  0  0  0  0
   24.2010   10.3670   20.4000 C   0  0  0  0  0  0  0  0  0  0  0  0
   25.5930   10.2520   20.3100 C   0  0  0  0  0  0  0  0  0  0  0  0
   26.3050   10.9150   19.3150 C   0  0  0  0  0  0  0  0  0  0  0  0
   25.6010   11.6690   18.3790 C   0  0  0  0  0  0  0  0  0  0  0  0
   24.2160   11.7590   18.4350 C   0  0  0  0  0  0  0  0  0  0  0  0
   23.5190   11.1160   19.4460 C   0  0  0  0  0  0  0  0  0  0  0  0
   27.6590   10.9590   19.1750 O   0  0  0  0  0  0  0  0  0  0  0  0
   28.4760   10.0510   19.9040 C   0  0  0  0  0  0  0  0  0  0  0  0
   29.8320   10.7120   20.1340 C   0  0  0  0  0  0  0  0  0  0  0  0
   29.7330   11.9910   20.9550 C   0  0  0  0  0  0  0  0  0  0  0  0
   29.4030   11.7400   22.4180 C   0  0  0  0  0  0  0  0  0  0  0  0
   29.2540   12.9890   23.0780 O   0  0  0  0  0  0  0  0  0  0  0  0
   28.0130   13.5150   23.2720 C   0  0  0  0  0  0  0  0  0  0  0  0
   26.7850   12.9600   22.9510 C   0  0  0  0  0  0  0  0  0  0  0  0
   25.5990   13.6080   23.3160 C   0  0  0  0  0  0  0  0  0  0  0  0
   25.6520   14.8510   23.9600 C   0  0  0  0  0  0  0  0  0  0  0  0
   26.8850   15.4180   24.2950 C   0  0  0  0  0  0  0  0  0  0  0  0
   28.0430   14.7470   23.9070 C   0  0  0  0  0  0  0  0  0  0  0  0
   24.2720   12.9670   23.0550 C   0  0  0  0  0  0  0  0  0  0  0  0
   23.2580   13.6330   22.8880 O   0  0  0  0  0  0  0  0  0  0  0  0
   22.4560   10.1150   23.8810 C   0  0  3  0  0  0  0  0  0  0  0  0
   21.2900    9.3460   23.5480 O   0  0  0  0  0  0  0  0  0  0  0  0
   22.0200   11.1600   24.9130 C   0  0  0  0  0  0  0  0  0  0  0  0
   21.3020   10.4560   26.0220 N   0  3  0  0  0  0  0  0  0  0  0  0
   20.4030   11.3160   26.8320 C   0  0  0  0  0  0  0  0  0  0  0  0
   20.1790   10.8370   28.2480 C   0  0  0  0  0  0  0  0  0  0  0  0
   21.0550   12.0190   27.9980 C   0  0  0  0  0  0  0  0  0  0  0  0
   19.2180   11.9290   26.1110 C   0  0  0  0  0  0  0  0  0  0  0  0
   18.2040   11.1180   25.5790 C   0  0  0  0  0  0  0  0  0  0  0  0
   17.1050   11.6430   24.8950 C   0  0  0  0  0  0  0  0  0  0  0  0
   17.0230   13.0250   24.7400 C   0  0  0  0  0  0  0  0  0  0  0  0
   18.0090   13.8530   25.2520 C   0  0  0  0  0  0  0  0  0  0  0  0
   19.0950   13.3090   25.9220 C   0  0  0  0  0  0  0  0  0  0  0  0
   16.0360   10.7680   24.2840 C   0  0  0  0  0  0  0  0  0  0  0  0
   16.4590   10.3160   22.8940 C   0  0  0  0  0  0  0  0  0  0  0  0
   15.6570    9.5660   25.1410 C   0  0  0  0  0  0  0  0  0  0  0  0
   25.0960   11.0720   23.2940 H   0  0  0  0  0  0  0  0  0  0  0  0
   22.3430   11.4730   22.2010 H   0  0  0  0  0  0  0  0  0  0  0  0
   22.5690    9.2480   21.1940 H   0  0  0  0  0  0  0  0  0  0  0  0
   24.0900    8.9700   22.0160 H   0  0  0  0  0  0  0  0  0  0  0  0
   26.0970    9.6570   21.0630 H   0  0  0  0  0  0  0  0  0  0  0  0
   26.1420   12.2010   17.6010 H   0  0  0  0  0  0  0  0  0  0  0  0
   23.6820   12.3580   17.7020 H   0  0  0  0  0  0  0  0  0  0  0  0
   22.4390   11.2280   19.4980 H   0  0  0  0  0  0  0  0  0  0  0  0
   28.6030    9.1440   19.3030 H   0  0  0  0  0  0  0  0  0  0  0  0
   28.0650    9.7600   20.8720 H   0  0  0  0  0  0  0  0  0  0  0  0
   30.2650   10.9700   19.1590 H   0  0  0  0  0  0  0  0  0  0  0  0
   30.5150   10.0030   20.6160 H   0  0  0  0  0  0  0  0  0  0  0  0
   29.0020   12.6800   20.5150 H   0  0  0  0  0  0  0  0  0  0  0  0
   30.6920   12.5230   20.9030 H   0  0  0  0  0  0  0  0  0  0  0  0
   30.2560   11.2370   22.8890 H   0  0  0  0  0  0  0  0  0  0  0  0
   28.5520   11.0730   22.5730 H   0  0  0  0  0  0  0  0  0  0  0  0
   26.7390   12.0340   22.3950 H   0  0  0  0  0  0  0  0  0  0  0  0
   24.7200   15.3300   24.2460 H   0  0  0  0  0  0  0  0  0  0  0  0
   29.0290   15.1530   24.1170 H   0  0  0  0  0  0  0  0  0  0  0  0
   23.1750    9.4280   24.3420 H   0  0  0  0  0  0  0  0  0  0  0  0
   20.7850    9.8210   22.8590 H   0  0  0  0  0  0  0  0  0  0  0  0
   21.3190   11.8650   24.4560 H   0  0  0  0  0  0  0  0  0  0  0  0
   22.8570   11.7010   25.3630 H   0  0  0  0  0  0  0  0  0  0  0  0
   21.9670    9.9570   26.6230 H   0  0  0  0  0  0  0  0  0  0  0  0
   20.7380    9.7230   25.5590 H   0  0  0  0  0  0  0  0  0  0  0  0
   20.6480    9.9210   28.5880 H   0  0  0  0  0  0  0  0  0  0  0  0
   19.2160   11.0210   28.7150 H   0  0  0  0  0  0  0  0  0  0  0  0
   20.6810   12.9830   28.3260 H   0  0  0  0  0  0  0  0  0  0  0  0
   22.1210   11.9050   28.1570 H   0  0  0  0  0  0  0  0  0  0  0  0
   18.2850   10.0400   25.7040 H   0  0  0  0  0  0  0  0  0  0  0  0
   16.1870   13.4710   24.2060 H   0  0  0  0  0  0  0  0  0  0  0  0
   17.9360   14.9300   25.1180 H   0  0  0  0  0  0  0  0  0  0  0  0
   19.8600   13.9870   26.2950 H   0  0  0  0  0  0  0  0  0  0  0  0
   15.1230   11.3700   24.1790 H   0  0  0  0  0  0  0  0  0  0  0  0
   17.3660    9.7010   22.9270 H   0  0  0  0  0  0  0  0  0  0  0  0
   16.6660   11.1730   22.2430 H   0  0  0  0  0  0  0  0  0  0  0  0
   15.6690    9.7230   22.4190 H   0  0  0  0  0  0  0  0  0  0  0  0
   16.4620    8.8260   25.2030 H   0  0  0  0  0  0  0  0  0  0  0  0
   14.7830    9.0560   24.7200 H   0  0  0  0  0  0  0  0  0  0  0  0
   15.4010    9.8730   26.1620 H   0  0  0  0  0  0  0  0  0  0  0  0
   27.9350   17.8310   26.8540 C   0  0  0  0  0  0  0  0  0  0  0  0
   28.6940   18.5760   27.1090 H   0  0  0  0  0  0  0  0  0  0  0  0
   27.8040   17.1700   27.7200 H   0  0  0  0  0  0  0  0  0  0  0  0
   28.2920   17.0180   25.6320 C   0  0  0  0  0  0  0  0  0  0  0  0
   28.9420   16.1910   25.9330 H   0  0  0  0  0  0  0  0  0  0  0  0
   28.7840   17.6300   24.8670 H   0  0  0  0  0  0  0  0  0  0  0  0
   27.0150   16.5660   25.1130 N   0  0  0  0  0  0  0  0  0  0  0  0
   25.9940   17.3920   25.5740 C   0  0  0  0  0  0  0  0  0  0  0  0
   26.6090   18.4390   26.4730 C   0  0  0  0  0  0  0  0  0  0  0  0
   25.9790   18.6270   27.3450 H   0  0  0  0  0  0  0  0  0  0  0  0
   26.7380   19.3630   25.8990 H   0  0  0  0  0  0  0  0  0  0  0  0
   24.8090   17.4190   25.2880 O   0  0  0  0  0  0  0  0  0  0  0  0
  1  2  1  0  0  0  0
  1 22  1  0  0  0  0
  1 40  1  0  0  0  0
  2  3  1  0  0  0  0
  2 24  1  0  0  0  0
  2 41  1  0  0  0  0
  3  4  1  0  0  0  0
  3 42  1  0  0  0  0
  3 43  1  0  0  0  0
  4  5  1  0  0  0  0
  4  9  2  0  0  0  0
  5  6  2  0  0  0  0
  5 44  1  0  0  0  0
  6  7  1  0  0  0  0
  6 10  1  0  0  0  0
  7  8  2  0  0  0  0
  7 45  1  0  0  0  0
  8  9  1  0  0  0  0
  8 46  1  0  0  0  0
  9 47  1  0  0  0  0
 10 11  1  0  0  0  0
 11 12  1  0  0  0  0
 11 48  1  0  0  0  0
 11 49  1  0  0  0  0
 12 13  1  0  0  0  0
 12 50  1  0  0  0  0
 12 51  1  0  0  0  0
 13 14  1  0  0  0  0
 13 52  1  0  0  0  0
 13 53  1  0  0  0  0
 14 15  1  0  0  0  0
 14 54  1  0  0  0  0
 14 55  1  0  0  0  0
 15 16  1  0  0  0  0
 16 17  1  0  0  0  0
 16 21  2  0  0  0  0
 17 18  2  0  0  0  0
 17 56  1  0  0  0  0
 18 19  1  0  0  0  0
 18 22  1  0  0  0  0
 19 20  2  0  0  0  0
 19 57  1  0  0  0  0
 20 21  1  0  0  0  0
 20 86  1  0  0  0  0
 21 58  1  0  0  0  0
 22 23  2  0  0  0  0
 24 25  1  0  0  0  0
 24 26  1  0  0  0  0
 24 59  1  0  0  0  0
 25 60  1  0  0  0  0
 26 27  1  0  0  0  0
 26 61  1  0  0  0  0
 26 62  1  0  0  0  0
 27 28  1  0  0  0  0
 27 63  1  0  0  0  0
 27 64  1  0  0  0  0
 28 29  1  0  0  0  0
 28 30  1  0  0  0  0
 28 31  1  0  0  0  0
 29 30  1  0  0  0  0
 29 65  1  0  0  0  0
 29 66  1  0  0  0  0
 30 67  1  0  0  0  0
 30 68  1  0  0  0  0
 31 32  1  0  0  0  0
 31 36  2  0  0  0  0
 32 33  2  0  0  0  0
 32 69  1  0  0  0  0
 33 34  1  0  0  0  0
 33 37  1  0  0  0  0
 34 35  2  0  0  0  0
 34 70  1  0  0  0  0
 35 36  1  0  0  0  0
 35 71  1  0  0  0  0
 36 72  1  0  0  0  0
 37 38  1  0  0  0  0
 37 39  1  0  0  0  0
 37 73  1  0  0  0  0
 38 74  1  0  0  0  0
 38 75  1  0  0  0  0
 38 76  1  0  0  0  0
 39 77  1  0  0  0  0
 39 78  1  0  0  0  0
 39 79  1  0  0  0  0
 80 81  1  0  0  0  0
 80 82  1  0  0  0  0
 80 83  1  0  0  0  0
 80 88  1  0  0  0  0
 83 84  1  0  0  0  0
 83 85  1  0  0  0  0
 83 86  1  0  0  0  0
 86 87  1  0  0  0  0
 87 88  1  0  0  0  0
 87 91  2  0  0  0  0
 88 89  1  0  0  0  0
 88 90  1  0  0  0  0
M  CHG  1  27   1
M  END
>  <PARENT_CMPD_ID>
CHEMBL595100

>  <STANDARD_TYPE>
IC50

>  <RELATION>
=

>  <STANDARD_VALUE>
1

>  <STANDARD_UNITS>
nM

>  <COMPOUND_KEY>
22

>  <PUBMED_ID>
19963375

>  <JOURNAL>
Bioorg. Med. Chem. Lett.

>  <YEAR>
2010

>  <VOLUME>
20

>  <FIRST_PAGE>
603

>  <Company>
Novartis

>  <idx>
282

>  <Model>
Valid

>  <target>
9

>  <des_pred_mlr>
8.7053804

>  <RF_Canvas>
7.7005868

>  <DNN_Canvas>
7.4568777

>  <pred_CoMFA>
7.3534002

>  <pred_COMSIA>
8.6450005

>  <pred_abm5>
7.8697901

>  <pred_ff8>
7.5000124

>  <pred_gau6>
7.5924325

>  <CID>
BACE_282

>  <active>
1

>  <des_class_bayes>
1

>  <maacs_class_bayes>
0

>  <radial_class_bayes>
1

>  <dend_class_bayes>
1

>  <molprint_class_bayes>
1

>  <RF_canvas>
1

>  <DNN_canvas>
1

$$$$
CHEMBL1916170
  MOE2015           3D

101105  0  0  1  0  0  0  0  0999 V2000
   25.1250   20.4600   25.3770 C   0  0  0  0  0  0  0  0  0  0  0  0
   25.0110   21.5340   25.3990 H   0  0  0  0  0  0  0  0  0  0  0  0
   24.5530   19.6790   26.3820 C   0  0  0  0  0  0  0  0  0  0  0  0
   23.9970   20.1390   27.1860 H   0  0  0  0  0  0  0  0  0  0  0  0
   25.8500   19.8520   24.3350 C   0  0  0  0  0  0  0  0  0  0  0  0
   23.1870   11.8460   20.3250 C   0  0  0  0  0  0  0  0  0  0  0  0
   26.2880   20.4650   23.5610 H   0  0  0  0  0  0  0  0  0  0  0  0
   22.2260   12.1450   20.7180 H   0  0  0  0  0  0  0  0  0  0  0  0
   25.1040   10.4330   20.3920 C   0  0  0  0  0  0  0  0  0  0  0  0
   24.7120   18.2920   26.3300 C   0  0  0  0  0  0  0  0  0  0  0  0
   25.6580    9.6180   20.8340 H   0  0  0  0  0  0  0  0  0  0  0  0
   24.9360   12.1640   18.6930 C   0  0  0  0  0  0  0  0  0  0  0  0
   24.2700   17.6760   27.0990 H   0  0  0  0  0  0  0  0  0  0  0  0
   25.3360   12.6830   17.8350 H   0  0  0  0  0  0  0  0  0  0  0  0
   26.0110   18.4630   24.2890 C   0  0  0  0  0  0  0  0  0  0  0  0
   23.8700   10.7920   20.9260 C   0  0  0  0  0  0  0  0  0  0  0  0
   23.7120   12.5220   19.2320 C   0  0  0  0  0  0  0  0  0  0  0  0
   26.5700   17.9990   23.4900 H   0  0  0  0  0  0  0  0  0  0  0  0
   25.6390   11.1160   19.2860 C   0  0  0  0  0  0  0  0  0  0  0  0
   27.1750   13.4880   23.6660 C   0  0  0  0  0  0  0  0  0  0  0  0
   29.7210   15.1070   22.9300 C   0  0  0  0  0  0  0  0  0  0  0  0
   23.6640   13.1990   23.8080 C   0  0  0  0  0  0  0  0  0  0  0  0
   27.2350   14.1150   21.3400 C   0  0  0  0  0  0  0  0  0  0  0  0
   27.5580   15.1550   21.2900 H   0  0  0  0  0  0  0  0  0  0  0  0
   27.3370   13.6550   20.3570 H   0  0  0  0  0  0  0  0  0  0  0  0
   20.4890   11.9020   25.1990 C   0  0  0  0  0  0  0  0  0  0  0  0
   25.4350   17.6910   25.2960 C   0  0  0  0  0  0  0  0  0  0  0  0
   20.8500   12.9300   25.1550 H   0  0  0  0  0  0  0  0  0  0  0  0
   20.0890   11.6150   24.2260 H   0  0  0  0  0  0  0  0  0  0  0  0
   25.8080   13.9890   21.8800 C   0  0  0  0  0  0  0  0  0  0  0  0
   25.3190   13.1130   21.4530 H   0  0  0  0  0  0  0  0  0  0  0  0
   25.2320   14.8820   21.6350 H   0  0  0  0  0  0  0  0  0  0  0  0
   20.1540   11.0320   27.3770 C   0  0  0  0  0  0  0  0  0  0  0  0
   19.4610   10.5130   28.0390 H   0  0  0  0  0  0  0  0  0  0  0  0
   20.7690   11.7180   27.9600 H   0  0  0  0  0  0  0  0  0  0  0  0
   19.4070   11.7700   26.2720 C   0  0  3  0  0  0  0  0  0  0  0  0
   18.9590   12.7220   26.5570 H   0  0  0  0  0  0  0  0  0  0  0  0
   21.6380   10.9530   25.6010 C   0  0  3  0  0  0  0  0  0  0  0  0
   22.4980   11.5110   25.9720 H   0  0  0  0  0  0  0  0  0  0  0  0
   27.9980   13.3320   22.4170 C   0  0  3  0  0  0  0  0  0  0  0  0
   31.1870   15.4700   22.9610 C   0  0  0  0  0  0  0  0  0  0  0  0
   31.7790   14.6180   22.6270 H   0  0  0  0  0  0  0  0  0  0  0  0
   31.4740   15.7350   23.9780 H   0  0  0  0  0  0  0  0  0  0  0  0
   31.3650   16.3180   22.3000 H   0  0  0  0  0  0  0  0  0  0  0  0
   23.2770   10.0620   22.1220 C   0  0  0  0  0  0  0  0  0  0  0  0
   24.0490    9.4200   22.5450 H   0  0  0  0  0  0  0  0  0  0  0  0
   22.4480    9.4490   21.7690 H   0  0  0  0  0  0  0  0  0  0  0  0
   27.8650   11.8720   21.9640 C   0  0  3  0  0  0  0  0  0  0  0  0
   27.0780   11.8930   20.6780 C   0  0  0  0  0  0  0  0  0  0  0  0
   26.9540   10.8740   20.3110 H   0  0  0  0  0  0  0  0  0  0  0  0
   27.8170   12.7110   19.6490 C   0  0  0  0  0  0  0  0  0  0  0  0
   27.2490   12.7260   18.7200 H   0  0  0  0  0  0  0  0  0  0  0  0
   28.7970   12.2680   19.4690 H   0  0  0  0  0  0  0  0  0  0  0  0
   25.5880   16.1920   25.2840 C   0  0  0  0  0  0  0  0  0  0  0  0
   27.9410   13.7300   20.0160 H   0  0  0  0  0  0  0  0  0  0  0  0
   26.0980   12.3350   20.8580 H   0  0  0  0  0  0  0  0  0  0  0  0
   25.5430   15.8240   26.3090 H   0  0  0  0  0  0  0  0  0  0  0  0
   27.2880   11.3610   22.7350 H   0  0  0  0  0  0  0  0  0  0  0  0
   26.5550   15.9390   24.8500 H   0  0  0  0  0  0  0  0  0  0  0  0
   24.4840   15.5150   24.4650 C   0  0  0  0  0  0  0  0  0  0  0  0
   24.4070   15.9970   23.4900 H   0  0  0  0  0  0  0  0  0  0  0  0
   23.5340   15.6050   24.9910 H   0  0  0  0  0  0  0  0  0  0  0  0
   24.8240   14.0400   24.2780 C   0  0  3  0  0  0  0  0  0  0  0  0
   25.1090   13.7090   25.2770 H   0  0  0  0  0  0  0  0  0  0  0  0
   22.2260   10.1380   24.4290 C   0  0  3  0  0  0  0  0  0  0  0  0
   23.1120    9.6280   24.8060 H   0  0  0  0  0  0  0  0  0  0  0  0
   29.0960   11.0120   21.7030 C   0  0  0  0  0  0  0  0  0  0  0  0
   29.7880   11.0740   22.5430 H   0  0  0  0  0  0  0  0  0  0  0  0
   29.6680   11.3510   20.8390 H   0  0  0  0  0  0  0  0  0  0  0  0
   28.7150   10.0040   21.5410 H   0  0  0  0  0  0  0  0  0  0  0  0
   22.7500   10.9840   23.2440 C   0  0  3  0  0  0  0  0  0  0  0  0
   17.1490   11.5140   25.3650 C   0  0  0  0  0  0  0  0  0  0  0  0
   21.9310   11.5870   22.8520 H   0  0  0  0  0  0  0  0  0  0  0  0
   21.0040   10.0590   26.6180 N   0  3  0  0  0  0  0  0  0  0  0  0
   20.4440    9.3410   26.1810 H   0  0  0  0  0  0  0  0  0  0  0  0
   21.6960    9.6290   27.2150 H   0  0  0  0  0  0  0  0  0  0  0  0
   25.9260   13.8440   23.3410 N   0  0  0  0  0  0  0  0  0  0  0  0
   29.3680   13.8690   22.5250 N   0  0  0  0  0  0  0  0  0  0  0  0
   30.1200   13.2450   22.2690 H   0  0  0  0  0  0  0  0  0  0  0  0
   16.4130   11.4910   26.1690 H   0  0  0  0  0  0  0  0  0  0  0  0
   23.8270   11.8630   23.7040 N   0  0  0  0  0  0  0  0  0  0  0  0
   24.7190   11.4580   23.9510 H   0  0  0  0  0  0  0  0  0  0  0  0
   27.5680   13.2710   24.7900 O   0  0  0  0  0  0  0  0  0  0  0  0
   28.9360   15.9740   23.2820 O   0  0  0  0  0  0  0  0  0  0  0  0
   22.5950   13.7100   23.5250 O   0  0  0  0  0  0  0  0  0  0  0  0
   17.3390   12.5480   25.0770 H   0  0  0  0  0  0  0  0  0  0  0  0
   21.2320    9.2070   23.9900 O   0  0  0  0  0  0  0  0  0  0  0  0
   20.4810    9.7130   23.6710 H   0  0  0  0  0  0  0  0  0  0  0  0
   23.0210   13.5220   18.6820 F   0  0  0  0  0  0  0  0  0  0  0  0
   26.8390   10.7710   18.7780 F   0  0  0  0  0  0  0  0  0  0  0  0
   18.3730   10.8990   25.8080 O   0  0  0  0  0  0  0  0  0  0  0  0
   15.6860    9.4190   22.0960 C   0  0  0  0  0  0  0  0  0  0  0  0
   15.3050    8.8730   21.2450 H   0  0  0  0  0  0  0  0  0  0  0  0
   15.5460    8.8930   23.3800 C   0  0  0  0  0  0  0  0  0  0  0  0
   15.0540    7.9340   23.5250 H   0  0  0  0  0  0  0  0  0  0  0  0
   16.0380    9.5970   24.4790 C   0  0  0  0  0  0  0  0  0  0  0  0
   15.9290    9.1870   25.4800 H   0  0  0  0  0  0  0  0  0  0  0  0
   16.6700   10.8270   24.2930 C   0  0  0  0  0  0  0  0  0  0  0  0
   16.8090   11.3530   23.0090 C   0  0  0  0  0  0  0  0  0  0  0  0
   17.3010   12.3110   22.8640 H   0  0  0  0  0  0  0  0  0  0  0  0
   16.3170   10.6490   21.9100 N   0  0  0  0  0  0  0  0  0  0  0  0
  1  2  1  0  0  0  0
  1  3  2  0  0  0  0
  1  5  1  0  0  0  0
  3  4  1  0  0  0  0
  3 10  1  0  0  0  0
  5  7  1  0  0  0  0
  5 15  2  0  0  0  0
  6  8  1  0  0  0  0
  6 16  2  0  0  0  0
  6 17  1  0  0  0  0
  9 11  1  0  0  0  0
  9 16  1  0  0  0  0
  9 19  2  0  0  0  0
 10 13  1  0  0  0  0
 10 27  2  0  0  0  0
 12 14  1  0  0  0  0
 12 17  2  0  0  0  0
 12 19  1  0  0  0  0
 15 18  1  0  0  0  0
 15 27  1  0  0  0  0
 16 45  1  0  0  0  0
 17 89  1  0  0  0  0
 19 90  1  0  0  0  0
 20 40  1  0  0  0  0
 20 77  1  0  0  0  0
 20 83  2  0  0  0  0
 21 41  1  0  0  0  0
 21 78  1  0  0  0  0
 21 84  2  0  0  0  0
 22 63  1  0  0  0  0
 22 81  1  0  0  0  0
 22 85  2  0  0  0  0
 23 24  1  0  0  0  0
 23 25  1  0  0  0  0
 23 30  1  0  0  0  0
 23 40  1  0  0  0  0
 26 28  1  0  0  0  0
 26 29  1  0  0  0  0
 26 36  1  0  0  0  0
 26 38  1  0  0  0  0
 27 54  1  0  0  0  0
 30 31  1  0  0  0  0
 30 32  1  0  0  0  0
 30 77  1  0  0  0  0
 33 34  1  0  0  0  0
 33 35  1  0  0  0  0
 33 36  1  0  0  0  0
 33 74  1  0  0  0  0
 36 37  1  0  0  0  0
 36 91  1  0  0  0  0
 38 39  1  0  0  0  0
 38 65  1  0  0  0  0
 38 74  1  0  0  0  0
 40 48  1  0  0  0  0
 40 78  1  0  0  0  0
 41 42  1  0  0  0  0
 41 43  1  0  0  0  0
 41 44  1  0  0  0  0
 45 46  1  0  0  0  0
 45 47  1  0  0  0  0
 45 71  1  0  0  0  0
 48 49  1  0  0  0  0
 48 58  1  0  0  0  0
 48 67  1  0  0  0  0
 49 50  1  0  0  0  0
 49 51  1  0  0  0  0
 49 56  1  0  0  0  0
 51 52  1  0  0  0  0
 51 53  1  0  0  0  0
 51 55  1  0  0  0  0
 54 57  1  0  0  0  0
 54 59  1  0  0  0  0
 54 60  1  0  0  0  0
 60 61  1  0  0  0  0
 60 62  1  0  0  0  0
 60 63  1  0  0  0  0
 63 64  1  0  0  0  0
 63 77  1  0  0  0  0
 65 66  1  0  0  0  0
 65 71  1  0  0  0  0
 65 87  1  0  0  0  0
 67 68  1  0  0  0  0
 67 69  1  0  0  0  0
 67 70  1  0  0  0  0
 71 73  1  0  0  0  0
 71 81  1  0  0  0  0
 72 80  1  0  0  0  0
 72 86  1  0  0  0  0
 72 91  1  0  0  0  0
 72 98  1  0  0  0  0
 74 75  1  0  0  0  0
 74 76  1  0  0  0  0
 78 79  1  0  0  0  0
 81 82  1  0  0  0  0
 87 88  1  0  0  0  0
 92 93  1  0  0  0  0
 92 94  1  0  0  0  0
 92101  2  0  0  0  0
 94 95  1  0  0  0  0
 94 96  2  0  0  0  0
 96 97  1  0  0  0  0
 96 98  1  0  0  0  0
 98 99  2  0  0  0  0
 99100  1  0  0  0  0
 99101  1  0  0  0  0
M  CHG  1  74   1
M  END
>  <PARENT_CMPD_ID>
CHEMBL1916170

>  <STANDARD_TYPE>
IC50

>  <RELATION>
=

>  <STANDARD_VALUE>
1.4

>  <STANDARD_UNITS>
nM

>  <COMPOUND_KEY>
31f

>  <PUBMED_ID>
21782431

>  <JOURNAL>
Bioorg.Med.Chem.Lett.

>  <YEAR>
2011

>  <VOLUME>
21

>  <FIRST_PAGE>
6916

>  <Company>
BMS

>  <idx>
283

>  <Model>
Valid

>  <target>
8.8538723

>  <des_pred_mlr>
7.8734899

>  <RF_Canvas>
7.8208065

>  <DNN_Canvas>
7.9963155

>  <pred_CoMFA>
9.1987

>  <pred_COMSIA>
8.8429003

>  <pred_abm5>
9.6043816

>  <pred_ff8>
8.3984747

>  <pred_gau6>
9.8458395

>  <CID>
BACE_283

>  <active>
1

>  <des_class_bayes>
1

>  <maacs_class_bayes>
1

>  <radial_class_bayes>
0

>  <dend_class_bayes>
1

>  <molprint_class_bayes>
1

>  <RF_canvas>
1

>  <DNN_canvas>
1

$$$$
CHEMBL1916169
  MOE2015           3D

101105  0  0  1  0  0  0  0  0999 V2000
   25.1250   20.4600   25.3770 C   0  0  0  0  0  0  0  0  0  0  0  0
   25.0110   21.5340   25.3990 H   0  0  0  0  0  0  0  0  0  0  0  0
   24.5530   19.6790   26.3820 C   0  0  0  0  0  0  0  0  0  0  0  0
   23.9970   20.1390   27.1860 H   0  0  0  0  0  0  0  0  0  0  0  0
   25.8500   19.8520   24.3350 C   0  0  0  0  0  0  0  0  0  0  0  0
   23.1870   11.8460   20.3250 C   0  0  0  0  0  0  0  0  0  0  0  0
   26.2880   20.4650   23.5610 H   0  0  0  0  0  0  0  0  0  0  0  0
   22.2260   12.1450   20.7180 H   0  0  0  0  0  0  0  0  0  0  0  0
   25.1040   10.4330   20.3920 C   0  0  0  0  0  0  0  0  0  0  0  0
   24.7120   18.2920   26.3300 C   0  0  0  0  0  0  0  0  0  0  0  0
   25.6580    9.6180   20.8340 H   0  0  0  0  0  0  0  0  0  0  0  0
   24.9360   12.1640   18.6930 C   0  0  0  0  0  0  0  0  0  0  0  0
   24.2700   17.6760   27.0990 H   0  0  0  0  0  0  0  0  0  0  0  0
   25.3360   12.6830   17.8350 H   0  0  0  0  0  0  0  0  0  0  0  0
   26.0110   18.4630   24.2890 C   0  0  0  0  0  0  0  0  0  0  0  0
   23.8700   10.7920   20.9260 C   0  0  0  0  0  0  0  0  0  0  0  0
   23.7120   12.5220   19.2320 C   0  0  0  0  0  0  0  0  0  0  0  0
   26.5700   17.9990   23.4900 H   0  0  0  0  0  0  0  0  0  0  0  0
   25.6390   11.1160   19.2860 C   0  0  0  0  0  0  0  0  0  0  0  0
   27.1750   13.4880   23.6660 C   0  0  0  0  0  0  0  0  0  0  0  0
   29.7210   15.1070   22.9300 C   0  0  0  0  0  0  0  0  0  0  0  0
   23.6640   13.1990   23.8080 C   0  0  0  0  0  0  0  0  0  0  0  0
   27.2350   14.1150   21.3400 C   0  0  0  0  0  0  0  0  0  0  0  0
   27.5580   15.1550   21.2900 H   0  0  0  0  0  0  0  0  0  0  0  0
   27.3370   13.6550   20.3570 H   0  0  0  0  0  0  0  0  0  0  0  0
   20.4890   11.9020   25.1990 C   0  0  0  0  0  0  0  0  0  0  0  0
   25.4350   17.6910   25.2960 C   0  0  0  0  0  0  0  0  0  0  0  0
   20.8500   12.9300   25.1550 H   0  0  0  0  0  0  0  0  0  0  0  0
   20.0890   11.6150   24.2260 H   0  0  0  0  0  0  0  0  0  0  0  0
   25.8080   13.9890   21.8800 C   0  0  0  0  0  0  0  0  0  0  0  0
   25.3190   13.1130   21.4530 H   0  0  0  0  0  0  0  0  0  0  0  0
   25.2320   14.8820   21.6350 H   0  0  0  0  0  0  0  0  0  0  0  0
   20.1540   11.0320   27.3770 C   0  0  0  0  0  0  0  0  0  0  0  0
   19.4610   10.5130   28.0390 H   0  0  0  0  0  0  0  0  0  0  0  0
   20.7690   11.7180   27.9600 H   0  0  0  0  0  0  0  0  0  0  0  0
   19.4070   11.7700   26.2720 C   0  0  3  0  0  0  0  0  0  0  0  0
   18.9590   12.7220   26.5570 H   0  0  0  0  0  0  0  0  0  0  0  0
   21.6380   10.9530   25.6010 C   0  0  3  0  0  0  0  0  0  0  0  0
   22.4980   11.5110   25.9720 H   0  0  0  0  0  0  0  0  0  0  0  0
   27.9980   13.3320   22.4170 C   0  0  3  0  0  0  0  0  0  0  0  0
   31.1870   15.4700   22.9610 C   0  0  0  0  0  0  0  0  0  0  0  0
   31.7790   14.6180   22.6270 H   0  0  0  0  0  0  0  0  0  0  0  0
   31.4740   15.7350   23.9780 H   0  0  0  0  0  0  0  0  0  0  0  0
   31.3650   16.3180   22.3000 H   0  0  0  0  0  0  0  0  0  0  0  0
   23.2770   10.0620   22.1220 C   0  0  0  0  0  0  0  0  0  0  0  0
   24.0490    9.4200   22.5450 H   0  0  0  0  0  0  0  0  0  0  0  0
   22.4480    9.4490   21.7690 H   0  0  0  0  0  0  0  0  0  0  0  0
   27.8650   11.8720   21.9640 C   0  0  3  0  0  0  0  0  0  0  0  0
   27.0780   11.8930   20.6780 C   0  0  0  0  0  0  0  0  0  0  0  0
   26.9540   10.8740   20.3110 H   0  0  0  0  0  0  0  0  0  0  0  0
   27.8170   12.7110   19.6490 C   0  0  0  0  0  0  0  0  0  0  0  0
   27.2490   12.7260   18.7200 H   0  0  0  0  0  0  0  0  0  0  0  0
   28.7970   12.2680   19.4690 H   0  0  0  0  0  0  0  0  0  0  0  0
   25.5880   16.1920   25.2840 C   0  0  0  0  0  0  0  0  0  0  0  0
   27.9410   13.7300   20.0160 H   0  0  0  0  0  0  0  0  0  0  0  0
   26.0980   12.3350   20.8580 H   0  0  0  0  0  0  0  0  0  0  0  0
   25.5430   15.8240   26.3090 H   0  0  0  0  0  0  0  0  0  0  0  0
   27.2880   11.3610   22.7350 H   0  0  0  0  0  0  0  0  0  0  0  0
   26.5550   15.9390   24.8500 H   0  0  0  0  0  0  0  0  0  0  0  0
   24.4840   15.5150   24.4650 C   0  0  0  0  0  0  0  0  0  0  0  0
   24.4070   15.9970   23.4900 H   0  0  0  0  0  0  0  0  0  0  0  0
   23.5340   15.6050   24.9910 H   0  0  0  0  0  0  0  0  0  0  0  0
   24.8240   14.0400   24.2780 C   0  0  3  0  0  0  0  0  0  0  0  0
   25.1090   13.7090   25.2770 H   0  0  0  0  0  0  0  0  0  0  0  0
   22.2260   10.1380   24.4290 C   0  0  3  0  0  0  0  0  0  0  0  0
   23.1120    9.6280   24.8060 H   0  0  0  0  0  0  0  0  0  0  0  0
   29.0960   11.0120   21.7030 C   0  0  0  0  0  0  0  0  0  0  0  0
   29.7880   11.0740   22.5430 H   0  0  0  0  0  0  0  0  0  0  0  0
   29.6680   11.3510   20.8390 H   0  0  0  0  0  0  0  0  0  0  0  0
   28.7150   10.0040   21.5410 H   0  0  0  0  0  0  0  0  0  0  0  0
   22.7500   10.9840   23.2440 C   0  0  3  0  0  0  0  0  0  0  0  0
   17.1490   11.5140   25.3650 C   0  0  0  0  0  0  0  0  0  0  0  0
   21.9310   11.5870   22.8520 H   0  0  0  0  0  0  0  0  0  0  0  0
   21.0040   10.0590   26.6180 N   0  3  0  0  0  0  0  0  0  0  0  0
   20.4440    9.3410   26.1810 H   0  0  0  0  0  0  0  0  0  0  0  0
   21.6960    9.6290   27.2150 H   0  0  0  0  0  0  0  0  0  0  0  0
   25.9260   13.8440   23.3410 N   0  0  0  0  0  0  0  0  0  0  0  0
   29.3680   13.8690   22.5250 N   0  0  0  0  0  0  0  0  0  0  0  0
   30.1200   13.2450   22.2690 H   0  0  0  0  0  0  0  0  0  0  0  0
   16.4130   11.4910   26.1690 H   0  0  0  0  0  0  0  0  0  0  0  0
   23.8270   11.8630   23.7040 N   0  0  0  0  0  0  0  0  0  0  0  0
   24.7190   11.4580   23.9510 H   0  0  0  0  0  0  0  0  0  0  0  0
   27.5680   13.2710   24.7900 O   0  0  0  0  0  0  0  0  0  0  0  0
   28.9360   15.9740   23.2820 O   0  0  0  0  0  0  0  0  0  0  0  0
   22.5950   13.7100   23.5250 O   0  0  0  0  0  0  0  0  0  0  0  0
   17.3390   12.5480   25.0770 H   0  0  0  0  0  0  0  0  0  0  0  0
   21.2320    9.2070   23.9900 O   0  0  0  0  0  0  0  0  0  0  0  0
   20.4810    9.7130   23.6710 H   0  0  0  0  0  0  0  0  0  0  0  0
   23.0210   13.5220   18.6820 F   0  0  0  0  0  0  0  0  0  0  0  0
   26.8390   10.7710   18.7780 F   0  0  0  0  0  0  0  0  0  0  0  0
   18.3730   10.8990   25.8080 O   0  0  0  0  0  0  0  0  0  0  0  0
   15.6860    9.4190   22.0960 C   0  0  0  0  0  0  0  0  0  0  0  0
   15.3050    8.8730   21.2450 H   0  0  0  0  0  0  0  0  0  0  0  0
   15.5460    8.8930   23.3800 C   0  0  0  0  0  0  0  0  0  0  0  0
   15.0540    7.9340   23.5250 H   0  0  0  0  0  0  0  0  0  0  0  0
   16.0380    9.5970   24.4790 C   0  0  0  0  0  0  0  0  0  0  0  0
   15.9290    9.1870   25.4800 H   0  0  0  0  0  0  0  0  0  0  0  0
   16.6700   10.8270   24.2930 C   0  0  0  0  0  0  0  0  0  0  0  0
   16.8090   11.3530   23.0090 N   0  0  0  0  0  0  0  0  0  0  0  0
   16.3170   10.6490   21.9100 C   0  0  0  0  0  0  0  0  0  0  0  0
   16.4250   11.0560   20.9150 H   0  0  0  0  0  0  0  0  0  0  0  0
  1  2  1  0  0  0  0
  1  3  2  0  0  0  0
  1  5  1  0  0  0  0
  3  4  1  0  0  0  0
  3 10  1  0  0  0  0
  5  7  1  0  0  0  0
  5 15  2  0  0  0  0
  6  8  1  0  0  0  0
  6 16  2  0  0  0  0
  6 17  1  0  0  0  0
  9 11  1  0  0  0  0
  9 16  1  0  0  0  0
  9 19  2  0  0  0  0
 10 13  1  0  0  0  0
 10 27  2  0  0  0  0
 12 14  1  0  0  0  0
 12 17  2  0  0  0  0
 12 19  1  0  0  0  0
 15 18  1  0  0  0  0
 15 27  1  0  0  0  0
 16 45  1  0  0  0  0
 17 89  1  0  0  0  0
 19 90  1  0  0  0  0
 20 40  1  0  0  0  0
 20 77  1  0  0  0  0
 20 83  2  0  0  0  0
 21 41  1  0  0  0  0
 21 78  1  0  0  0  0
 21 84  2  0  0  0  0
 22 63  1  0  0  0  0
 22 81  1  0  0  0  0
 22 85  2  0  0  0  0
 23 24  1  0  0  0  0
 23 25  1  0  0  0  0
 23 30  1  0  0  0  0
 23 40  1  0  0  0  0
 26 28  1  0  0  0  0
 26 29  1  0  0  0  0
 26 36  1  0  0  0  0
 26 38  1  0  0  0  0
 27 54  1  0  0  0  0
 30 31  1  0  0  0  0
 30 32  1  0  0  0  0
 30 77  1  0  0  0  0
 33 34  1  0  0  0  0
 33 35  1  0  0  0  0
 33 36  1  0  0  0  0
 33 74  1  0  0  0  0
 36 37  1  0  0  0  0
 36 91  1  0  0  0  0
 38 39  1  0  0  0  0
 38 65  1  0  0  0  0
 38 74  1  0  0  0  0
 40 48  1  0  0  0  0
 40 78  1  0  0  0  0
 41 42  1  0  0  0  0
 41 43  1  0  0  0  0
 41 44  1  0  0  0  0
 45 46  1  0  0  0  0
 45 47  1  0  0  0  0
 45 71  1  0  0  0  0
 48 49  1  0  0  0  0
 48 58  1  0  0  0  0
 48 67  1  0  0  0  0
 49 50  1  0  0  0  0
 49 51  1  0  0  0  0
 49 56  1  0  0  0  0
 51 52  1  0  0  0  0
 51 53  1  0  0  0  0
 51 55  1  0  0  0  0
 54 57  1  0  0  0  0
 54 59  1  0  0  0  0
 54 60  1  0  0  0  0
 60 61  1  0  0  0  0
 60 62  1  0  0  0  0
 60 63  1  0  0  0  0
 63 64  1  0  0  0  0
 63 77  1  0  0  0  0
 65 66  1  0  0  0  0
 65 71  1  0  0  0  0
 65 87  1  0  0  0  0
 67 68  1  0  0  0  0
 67 69  1  0  0  0  0
 67 70  1  0  0  0  0
 71 73  1  0  0  0  0
 71 81  1  0  0  0  0
 72 80  1  0  0  0  0
 72 86  1  0  0  0  0
 72 91  1  0  0  0  0
 72 98  1  0  0  0  0
 74 75  1  0  0  0  0
 74 76  1  0  0  0  0
 78 79  1  0  0  0  0
 81 82  1  0  0  0  0
 87 88  1  0  0  0  0
 92 93  1  0  0  0  0
 92 94  1  0  0  0  0
 92100  2  0  0  0  0
 94 95  1  0  0  0  0
 94 96  2  0  0  0  0
 96 97  1  0  0  0  0
 96 98  1  0  0  0  0
 98 99  2  0  0  0  0
 99100  1  0  0  0  0
100101  1  0  0  0  0
M  CHG  1  74   1
M  END
>  <PARENT_CMPD_ID>
CHEMBL1916169

>  <STANDARD_TYPE>
IC50

>  <RELATION>
=

>  <STANDARD_VALUE>
1.5

>  <STANDARD_UNITS>
nM

>  <COMPOUND_KEY>
31e

>  <PUBMED_ID>
21782431

>  <JOURNAL>
Bioorg.Med.Chem.Lett.

>  <YEAR>
2011

>  <VOLUME>
21

>  <FIRST_PAGE>
6916

>  <Company>
BMS

>  <idx>
284

>  <Model>
Valid

>  <target>
8.8239088

>  <des_pred_mlr>
7.89675

>  <RF_Canvas>
7.807343

>  <DNN_Canvas>
7.9933863

>  <pred_CoMFA>
9.2580996

>  <pred_COMSIA>
8.7282

>  <pred_abm5>
9.6175413

>  <pred_ff8>
8.3555784

>  <pred_gau6>
9.5651302

>  <CID>
BACE_284

>  <active>
1

>  <des_class_bayes>
1

>  <maacs_class_bayes>
1

>  <radial_class_bayes>
0

>  <dend_class_bayes>
1

>  <molprint_class_bayes>
1

>  <RF_canvas>
1

>  <DNN_canvas>
1

$$$$
22468684_25
  MOE2015           3D

 84 88  0  0  1  0  0  0  0  0999 V2000
   20.7500   13.9080   29.6310 C   0  0  0  0  0  0  0  0  0  0  0  0
   20.1140   13.0310   30.7050 C   0  0  0  0  0  0  0  0  0  0  0  0
   19.1050   12.5590   29.6610 C   0  0  0  0  0  0  0  0  0  0  0  0
   20.0830   13.0210   28.5550 C   0  0  0  0  0  0  0  0  0  0  0  0
   21.0150   11.9740   27.9700 C   0  0  0  0  0  0  0  0  0  0  0  0
   19.4950   13.7830   27.4890 O   0  0  0  0  0  0  0  0  0  0  0  0
   18.8610   13.0750   26.5040 C   0  0  0  0  0  0  0  0  0  0  0  0
   17.9700   13.7900   25.8010 N   0  0  0  0  0  0  0  0  0  0  0  0
   17.3310   13.1520   24.8070 C   0  0  0  0  0  0  0  0  0  0  0  0
   17.5170   11.8150   24.4900 C   0  0  0  0  0  0  0  0  0  0  0  0
   16.7220   11.1690   23.3960 C   0  0  0  0  0  0  0  0  0  0  0  0
   15.3900   10.5180   23.8220 C   0  0  0  0  0  0  0  0  0  0  0  0
   14.4870   11.4960   24.5750 C   0  0  0  0  0  0  0  0  0  0  0  0
   15.6280    9.2850   24.6930 C   0  0  0  0  0  0  0  0  0  0  0  0
   14.6560   10.0740   22.5520 C   0  0  0  0  0  0  0  0  0  0  0  0
   18.4510   11.1090   25.2380 C   0  0  0  0  0  0  0  0  0  0  0  0
   19.1690   11.7460   26.2520 C   0  0  0  0  0  0  0  0  0  0  0  0
   20.2170   11.0360   27.0570 C   0  0  3  0  0  0  0  0  0  0  0  0
   21.1970   10.2340   26.2300 N   0  3  0  0  0  0  0  0  0  0  0  0
   21.9290   10.9920   25.1530 C   0  0  0  0  0  0  0  0  0  0  0  0
   22.3660   10.0100   24.0720 C   0  0  3  0  0  0  0  0  0  0  0  0
   21.2200    9.2450   23.6760 O   0  0  0  0  0  0  0  0  0  0  0  0
   23.0040   10.7130   22.8550 C   0  0  3  0  0  0  0  0  0  0  0  0
   24.0160   11.6770   23.2660 N   0  0  0  0  0  0  0  0  0  0  0  0
   23.7630   13.0310   23.3400 C   0  0  0  0  0  0  0  0  0  0  0  0
   22.6700   13.5270   23.0960 O   0  0  0  0  0  0  0  0  0  0  0  0
   24.9350   13.8490   23.8560 C   0  0  0  0  0  0  0  0  0  0  0  0
   26.1800   13.3170   23.4340 O   0  0  0  0  0  0  0  0  0  0  0  0
   26.5930   13.8540   22.1860 C   0  0  0  0  0  0  0  0  0  0  0  0
   23.5610    9.6570   21.8790 C   0  0  0  0  0  0  0  0  0  0  0  0
   24.3910   10.2460   20.7790 C   0  0  0  0  0  0  0  0  0  0  0  0
   25.7800   10.2970   20.9200 C   0  0  0  0  0  0  0  0  0  0  0  0
   23.8100   10.7940   19.6490 C   0  0  0  0  0  0  0  0  0  0  0  0
   24.6190   11.3780   18.6930 C   0  0  0  0  0  0  0  0  0  0  0  0
   25.9930   11.4450   18.8380 C   0  0  0  0  0  0  0  0  0  0  0  0
   26.5970   10.8990   19.9630 C   0  0  0  0  0  0  0  0  0  0  0  0
   28.0440   11.0310   20.1470 C   0  0  0  0  0  0  0  0  0  0  0  0
   28.7570   12.0310   19.6720 N   0  0  0  0  0  0  0  0  0  0  0  0
   30.0740   11.8860   20.0430 C   0  0  0  0  0  0  0  0  0  0  0  0
   30.3630   10.7730   20.7940 C   0  0  0  0  0  0  0  0  0  0  0  0
   28.9450    9.8650   21.0370 S   0  0  0  0  0  0  0  0  0  0  0  0
   21.8440   13.9290   29.6380 H   0  0  0  0  0  0  0  0  0  0  0  0
   20.3880   14.9440   29.6400 H   0  0  0  0  0  0  0  0  0  0  0  0
   19.6940   13.5620   31.5630 H   0  0  0  0  0  0  0  0  0  0  0  0
   20.7730   12.2360   31.0710 H   0  0  0  0  0  0  0  0  0  0  0  0
   18.1620   13.1180   29.6790 H   0  0  0  0  0  0  0  0  0  0  0  0
   18.8720   11.4910   29.6970 H   0  0  0  0  0  0  0  0  0  0  0  0
   21.5170   11.3900   28.7510 H   0  0  0  0  0  0  0  0  0  0  0  0
   21.8070   12.4910   27.4130 H   0  0  0  0  0  0  0  0  0  0  0  0
   16.6220   13.7690   24.2600 H   0  0  0  0  0  0  0  0  0  0  0  0
   17.3570   10.4240   22.8950 H   0  0  0  0  0  0  0  0  0  0  0  0
   16.5280   11.9290   22.6250 H   0  0  0  0  0  0  0  0  0  0  0  0
   14.9010   11.7720   25.5500 H   0  0  0  0  0  0  0  0  0  0  0  0
   13.5010   11.0550   24.7650 H   0  0  0  0  0  0  0  0  0  0  0  0
   14.3260   12.4150   24.0000 H   0  0  0  0  0  0  0  0  0  0  0  0
   16.0650    9.5470   25.6630 H   0  0  0  0  0  0  0  0  0  0  0  0
   16.3020    8.5730   24.2020 H   0  0  0  0  0  0  0  0  0  0  0  0
   14.6890    8.7580   24.9000 H   0  0  0  0  0  0  0  0  0  0  0  0
   14.4360   10.9270   21.8990 H   0  0  0  0  0  0  0  0  0  0  0  0
   13.7030    9.5870   22.7880 H   0  0  0  0  0  0  0  0  0  0  0  0
   15.2560    9.3610   21.9750 H   0  0  0  0  0  0  0  0  0  0  0  0
   18.6100   10.0560   25.0190 H   0  0  0  0  0  0  0  0  0  0  0  0
   19.7040   10.2940   27.6810 H   0  0  0  0  0  0  0  0  0  0  0  0
   20.6910    9.4830   25.7300 H   0  0  0  0  0  0  0  0  0  0  0  0
   21.8630    9.7440   26.8420 H   0  0  0  0  0  0  0  0  0  0  0  0
   22.7750   11.4900   25.6340 H   0  0  0  0  0  0  0  0  0  0  0  0
   21.2450   11.7330   24.7330 H   0  0  0  0  0  0  0  0  0  0  0  0
   23.0830    9.3070   24.5140 H   0  0  0  0  0  0  0  0  0  0  0  0
   20.7960    9.6700   22.9060 H   0  0  0  0  0  0  0  0  0  0  0  0
   22.2180   11.2620   22.3180 H   0  0  0  0  0  0  0  0  0  0  0  0
   24.9650   11.3800   23.4910 H   0  0  0  0  0  0  0  0  0  0  0  0
   24.8200   14.8970   23.5590 H   0  0  0  0  0  0  0  0  0  0  0  0
   24.9060   13.7980   24.9490 H   0  0  0  0  0  0  0  0  0  0  0  0
   27.5550   13.4090   21.9240 H   0  0  0  0  0  0  0  0  0  0  0  0
   26.7300   14.9380   22.2620 H   0  0  0  0  0  0  0  0  0  0  0  0
   25.8650   13.6240   21.4030 H   0  0  0  0  0  0  0  0  0  0  0  0
   22.7390    9.0760   21.4410 H   0  0  0  0  0  0  0  0  0  0  0  0
   24.1710    8.9280   22.4290 H   0  0  0  0  0  0  0  0  0  0  0  0
   26.2220    9.8820   21.8260 H   0  0  0  0  0  0  0  0  0  0  0  0
   22.7340   10.7850   19.5020 H   0  0  0  0  0  0  0  0  0  0  0  0
   24.0570   11.9080   17.6070 F   0  0  0  0  0  0  0  0  0  0  0  0
   26.5830   11.9350   18.0670 H   0  0  0  0  0  0  0  0  0  0  0  0
   30.7940   12.6340   19.7360 H   0  0  0  0  0  0  0  0  0  0  0  0
   31.3180   10.4610   21.1910 H   0  0  0  0  0  0  0  0  0  0  0  0
  1  2  1  0  0  0  0
  1  4  1  0  0  0  0
  1 42  1  0  0  0  0
  1 43  1  0  0  0  0
  2  3  1  0  0  0  0
  2 44  1  0  0  0  0
  2 45  1  0  0  0  0
  3  4  1  0  0  0  0
  3 46  1  0  0  0  0
  3 47  1  0  0  0  0
  4  5  1  0  0  0  0
  4  6  1  0  0  0  0
  5 18  1  0  0  0  0
  5 48  1  0  0  0  0
  5 49  1  0  0  0  0
  6  7  1  0  0  0  0
  7  8  1  0  0  0  0
  7 17  2  0  0  0  0
  8  9  2  0  0  0  0
  9 10  1  0  0  0  0
  9 50  1  0  0  0  0
 10 11  1  0  0  0  0
 10 16  2  0  0  0  0
 11 12  1  0  0  0  0
 11 51  1  0  0  0  0
 11 52  1  0  0  0  0
 12 13  1  0  0  0  0
 12 14  1  0  0  0  0
 12 15  1  0  0  0  0
 13 53  1  0  0  0  0
 13 54  1  0  0  0  0
 13 55  1  0  0  0  0
 14 56  1  0  0  0  0
 14 57  1  0  0  0  0
 14 58  1  0  0  0  0
 15 59  1  0  0  0  0
 15 60  1  0  0  0  0
 15 61  1  0  0  0  0
 16 17  1  0  0  0  0
 16 62  1  0  0  0  0
 17 18  1  0  0  0  0
 18 19  1  0  0  0  0
 18 63  1  0  0  0  0
 19 20  1  0  0  0  0
 19 64  1  0  0  0  0
 19 65  1  0  0  0  0
 20 21  1  0  0  0  0
 20 66  1  0  0  0  0
 20 67  1  0  0  0  0
 21 22  1  0  0  0  0
 21 23  1  0  0  0  0
 21 68  1  0  0  0  0
 22 69  1  0  0  0  0
 23 24  1  0  0  0  0
 23 30  1  0  0  0  0
 23 70  1  0  0  0  0
 24 25  1  0  0  0  0
 24 71  1  0  0  0  0
 25 26  2  0  0  0  0
 25 27  1  0  0  0  0
 27 28  1  0  0  0  0
 27 72  1  0  0  0  0
 27 73  1  0  0  0  0
 28 29  1  0  0  0  0
 29 74  1  0  0  0  0
 29 75  1  0  0  0  0
 29 76  1  0  0  0  0
 30 31  1  0  0  0  0
 30 77  1  0  0  0  0
 30 78  1  0  0  0  0
 31 32  1  0  0  0  0
 31 33  2  0  0  0  0
 32 36  2  0  0  0  0
 32 79  1  0  0  0  0
 33 34  1  0  0  0  0
 33 80  1  0  0  0  0
 34 35  2  0  0  0  0
 34 81  1  0  0  0  0
 35 36  1  0  0  0  0
 35 82  1  0  0  0  0
 36 37  1  0  0  0  0
 37 38  2  0  0  0  0
 37 41  1  0  0  0  0
 38 39  1  0  0  0  0
 39 40  2  0  0  0  0
 39 83  1  0  0  0  0
 40 41  1  0  0  0  0
 40 84  1  0  0  0  0
M  CHG  1  19   1
M  END
>  <PARENT_CMPD_ID>
22468684_25

>  <STANDARD_TYPE>
IC50

>  <RELATION>
=

>  <STANDARD_VALUE>
1.9

>  <STANDARD_UNITS>
nM

>  <COMPOUND_KEY>
25

>  <PUBMED_ID>
22468684

>  <JOURNAL>
J.Med.Chem.

>  <YEAR>
2012

>  <VOLUME>
55

>  <FIRST_PAGE>
9025

>  <Company>
Amgen

>  <idx>
285

>  <Model>
Valid

>  <target>
8.7212467

>  <des_pred_mlr>
7.8023

>  <RF_Canvas>
8.0714712

>  <DNN_Canvas>
8.1114187

>  <pred_CoMFA>
8.6686001

>  <pred_COMSIA>
8.6125002

>  <pred_abm5>
8.9618025

>  <pred_ff8>
8.4864044

>  <pred_gau6>
8.8454132

>  <CID>
BACE_285

>  <active>
1

>  <des_class_bayes>
1

>  <maacs_class_bayes>
1

>  <radial_class_bayes>
1

>  <dend_class_bayes>
1

>  <molprint_class_bayes>
1

>  <RF_canvas>
1

>  <DNN_canvas>
1

$$$$
22468684_29
  MOE2015           3D

 80 83  0  0  1  0  0  0  0  0999 V2000
   20.7490   13.9060   29.6310 C   0  0  0  0  0  0  0  0  0  0  0  0
   20.1110   13.0290   30.7050 C   0  0  0  0  0  0  0  0  0  0  0  0
   19.1030   12.5580   29.6590 C   0  0  0  0  0  0  0  0  0  0  0  0
   20.0820   13.0190   28.5540 C   0  0  0  0  0  0  0  0  0  0  0  0
   21.0130   11.9720   27.9690 C   0  0  0  0  0  0  0  0  0  0  0  0
   19.4940   13.7820   27.4880 O   0  0  0  0  0  0  0  0  0  0  0  0
   18.8600   13.0740   26.5030 C   0  0  0  0  0  0  0  0  0  0  0  0
   17.9690   13.7890   25.8000 N   0  0  0  0  0  0  0  0  0  0  0  0
   17.3300   13.1520   24.8060 C   0  0  0  0  0  0  0  0  0  0  0  0
   17.5150   11.8140   24.4900 C   0  0  0  0  0  0  0  0  0  0  0  0
   16.7200   11.1680   23.3960 C   0  0  0  0  0  0  0  0  0  0  0  0
   15.3880   10.5170   23.8220 C   0  0  0  0  0  0  0  0  0  0  0  0
   14.4850   11.4950   24.5740 C   0  0  0  0  0  0  0  0  0  0  0  0
   15.6270    9.2850   24.6940 C   0  0  0  0  0  0  0  0  0  0  0  0
   14.6550   10.0730   22.5520 C   0  0  0  0  0  0  0  0  0  0  0  0
   18.4480   11.1080   25.2390 C   0  0  0  0  0  0  0  0  0  0  0  0
   19.1660   11.7450   26.2520 C   0  0  0  0  0  0  0  0  0  0  0  0
   20.2160   11.0350   27.0550 C   0  0  3  0  0  0  0  0  0  0  0  0
   21.1960   10.2380   26.2250 N   0  3  0  0  0  0  0  0  0  0  0  0
   21.9220   11.0000   25.1470 C   0  0  0  0  0  0  0  0  0  0  0  0
   22.3680   10.0200   24.0660 C   0  0  3  0  0  0  0  0  0  0  0  0
   21.2280    9.2510   23.6670 O   0  0  0  0  0  0  0  0  0  0  0  0
   23.0130   10.7200   22.8500 C   0  0  3  0  0  0  0  0  0  0  0  0
   24.0230   11.6850   23.2650 N   0  0  0  0  0  0  0  0  0  0  0  0
   23.7680   13.0380   23.3410 C   0  0  0  0  0  0  0  0  0  0  0  0
   22.6740   13.5330   23.0990 O   0  0  0  0  0  0  0  0  0  0  0  0
   24.9440   13.8560   23.8460 C   0  0  0  0  0  0  0  0  0  0  0  0
   26.1850   13.3110   23.4250 O   0  0  0  0  0  0  0  0  0  0  0  0
   26.5930   13.8260   22.1660 C   0  0  0  0  0  0  0  0  0  0  0  0
   23.5760    9.6640   21.8780 C   0  0  0  0  0  0  0  0  0  0  0  0
   24.4950   10.2300   20.8360 C   0  0  0  0  0  0  0  0  0  0  0  0
   25.8790   10.1770   21.0390 C   0  0  0  0  0  0  0  0  0  0  0  0
   24.0070   10.8410   19.6930 C   0  0  0  0  0  0  0  0  0  0  0  0
   22.9420   10.9120   19.4970 H   0  0  0  0  0  0  0  0  0  0  0  0
   24.9020   11.3770   18.7830 C   0  0  0  0  0  0  0  0  0  0  0  0
   26.2730   11.3360   18.9840 C   0  0  0  0  0  0  0  0  0  0  0  0
   26.7680   10.7300   20.1240 C   0  0  0  0  0  0  0  0  0  0  0  0
   21.8430   13.9270   29.6390 H   0  0  0  0  0  0  0  0  0  0  0  0
   20.3870   14.9420   29.6400 H   0  0  0  0  0  0  0  0  0  0  0  0
   19.6910   13.5600   31.5630 H   0  0  0  0  0  0  0  0  0  0  0  0
   20.7690   12.2340   31.0710 H   0  0  0  0  0  0  0  0  0  0  0  0
   18.1600   13.1170   29.6780 H   0  0  0  0  0  0  0  0  0  0  0  0
   18.8700   11.4900   29.6950 H   0  0  0  0  0  0  0  0  0  0  0  0
   21.5150   11.3880   28.7510 H   0  0  0  0  0  0  0  0  0  0  0  0
   21.8060   12.4890   27.4140 H   0  0  0  0  0  0  0  0  0  0  0  0
   16.6210   13.7680   24.2590 H   0  0  0  0  0  0  0  0  0  0  0  0
   17.3550   10.4230   22.8950 H   0  0  0  0  0  0  0  0  0  0  0  0
   16.5270   11.9280   22.6250 H   0  0  0  0  0  0  0  0  0  0  0  0
   14.8990   11.7720   25.5500 H   0  0  0  0  0  0  0  0  0  0  0  0
   13.4990   11.0550   24.7650 H   0  0  0  0  0  0  0  0  0  0  0  0
   14.3250   12.4140   23.9990 H   0  0  0  0  0  0  0  0  0  0  0  0
   16.0630    9.5470   25.6630 H   0  0  0  0  0  0  0  0  0  0  0  0
   16.3010    8.5730   24.2040 H   0  0  0  0  0  0  0  0  0  0  0  0
   14.6880    8.7570   24.9000 H   0  0  0  0  0  0  0  0  0  0  0  0
   14.4340   10.9250   21.8990 H   0  0  0  0  0  0  0  0  0  0  0  0
   13.7020    9.5850   22.7880 H   0  0  0  0  0  0  0  0  0  0  0  0
   15.2550    9.3600   21.9750 H   0  0  0  0  0  0  0  0  0  0  0  0
   18.6060   10.0540   25.0210 H   0  0  0  0  0  0  0  0  0  0  0  0
   19.7050   10.2910   27.6780 H   0  0  0  0  0  0  0  0  0  0  0  0
   20.6950    9.4830   25.7260 H   0  0  0  0  0  0  0  0  0  0  0  0
   21.8700    9.7530   26.8320 H   0  0  0  0  0  0  0  0  0  0  0  0
   22.7640   11.5060   25.6260 H   0  0  0  0  0  0  0  0  0  0  0  0
   21.2320   11.7350   24.7240 H   0  0  0  0  0  0  0  0  0  0  0  0
   23.0850    9.3200   24.5130 H   0  0  0  0  0  0  0  0  0  0  0  0
   20.7760    9.6990   22.9260 H   0  0  0  0  0  0  0  0  0  0  0  0
   22.2310   11.2690   22.3070 H   0  0  0  0  0  0  0  0  0  0  0  0
   24.9730   11.3880   23.4870 H   0  0  0  0  0  0  0  0  0  0  0  0
   24.8350   14.9010   23.5370 H   0  0  0  0  0  0  0  0  0  0  0  0
   24.9180   13.8170   24.9400 H   0  0  0  0  0  0  0  0  0  0  0  0
   27.5370   13.3500   21.8900 H   0  0  0  0  0  0  0  0  0  0  0  0
   26.7590   14.9060   22.2310 H   0  0  0  0  0  0  0  0  0  0  0  0
   25.8470   13.6080   21.3960 H   0  0  0  0  0  0  0  0  0  0  0  0
   22.7530    9.1300   21.3860 H   0  0  0  0  0  0  0  0  0  0  0  0
   24.1220    8.8950   22.4420 H   0  0  0  0  0  0  0  0  0  0  0  0
   26.2740    9.6990   21.9340 H   0  0  0  0  0  0  0  0  0  0  0  0
   24.4270   11.9570   17.6830 F   0  0  0  0  0  0  0  0  0  0  0  0
   26.9360   11.7740   18.2440 H   0  0  0  0  0  0  0  0  0  0  0  0
   28.1730   10.6640   20.3890 C   0  0  0  0  0  0  0  0  0  0  0  0
   29.3450   10.6040   20.6460 C   0  0  0  0  0  0  0  0  0  0  0  0
   30.3850   10.5530   20.8720 H   0  0  0  0  0  0  0  0  0  0  0  0
  1  2  1  0  0  0  0
  1  4  1  0  0  0  0
  1 38  1  0  0  0  0
  1 39  1  0  0  0  0
  2  3  1  0  0  0  0
  2 40  1  0  0  0  0
  2 41  1  0  0  0  0
  3  4  1  0  0  0  0
  3 42  1  0  0  0  0
  3 43  1  0  0  0  0
  4  5  1  0  0  0  0
  4  6  1  0  0  0  0
  5 18  1  0  0  0  0
  5 44  1  0  0  0  0
  5 45  1  0  0  0  0
  6  7  1  0  0  0  0
  7  8  1  0  0  0  0
  7 17  2  0  0  0  0
  8  9  2  0  0  0  0
  9 10  1  0  0  0  0
  9 46  1  0  0  0  0
 10 11  1  0  0  0  0
 10 16  2  0  0  0  0
 11 12  1  0  0  0  0
 11 47  1  0  0  0  0
 11 48  1  0  0  0  0
 12 13  1  0  0  0  0
 12 14  1  0  0  0  0
 12 15  1  0  0  0  0
 13 49  1  0  0  0  0
 13 50  1  0  0  0  0
 13 51  1  0  0  0  0
 14 52  1  0  0  0  0
 14 53  1  0  0  0  0
 14 54  1  0  0  0  0
 15 55  1  0  0  0  0
 15 56  1  0  0  0  0
 15 57  1  0  0  0  0
 16 17  1  0  0  0  0
 16 58  1  0  0  0  0
 17 18  1  0  0  0  0
 18 19  1  0  0  0  0
 18 59  1  0  0  0  0
 19 20  1  0  0  0  0
 19 60  1  0  0  0  0
 19 61  1  0  0  0  0
 20 21  1  0  0  0  0
 20 62  1  0  0  0  0
 20 63  1  0  0  0  0
 21 22  1  0  0  0  0
 21 23  1  0  0  0  0
 21 64  1  0  0  0  0
 22 65  1  0  0  0  0
 23 24  1  0  0  0  0
 23 30  1  0  0  0  0
 23 66  1  0  0  0  0
 24 25  1  0  0  0  0
 24 67  1  0  0  0  0
 25 26  2  0  0  0  0
 25 27  1  0  0  0  0
 27 28  1  0  0  0  0
 27 68  1  0  0  0  0
 27 69  1  0  0  0  0
 28 29  1  0  0  0  0
 29 70  1  0  0  0  0
 29 71  1  0  0  0  0
 29 72  1  0  0  0  0
 30 31  1  0  0  0  0
 30 73  1  0  0  0  0
 30 74  1  0  0  0  0
 31 32  1  0  0  0  0
 31 33  2  0  0  0  0
 32 37  2  0  0  0  0
 32 75  1  0  0  0  0
 33 34  1  0  0  0  0
 33 35  1  0  0  0  0
 35 36  2  0  0  0  0
 35 76  1  0  0  0  0
 36 37  1  0  0  0  0
 36 77  1  0  0  0  0
 37 78  1  0  0  0  0
 78 79  3  0  0  0  0
 79 80  1  0  0  0  0
M  CHG  1  19   1
M  END
>  <PARENT_CMPD_ID>
22468684_29

>  <STANDARD_TYPE>
IC50

>  <RELATION>
=

>  <STANDARD_VALUE>
1.9

>  <STANDARD_UNITS>
nM

>  <COMPOUND_KEY>
29

>  <PUBMED_ID>
22468684

>  <JOURNAL>
J.Med.Chem.

>  <YEAR>
2012

>  <VOLUME>
55

>  <FIRST_PAGE>
9025

>  <Company>
Amgen

>  <idx>
286

>  <Model>
Valid

>  <target>
8.7212467

>  <des_pred_mlr>
7.5431499

>  <RF_Canvas>
8.0246887

>  <DNN_Canvas>
7.3648057

>  <pred_CoMFA>
8.2207003

>  <pred_COMSIA>
8.2163

>  <pred_abm5>
8.5329714

>  <pred_ff8>
8.092576

>  <pred_gau6>
8.7953167

>  <CID>
BACE_286

>  <active>
1

>  <des_class_bayes>
1

>  <maacs_class_bayes>
1

>  <radial_class_bayes>
1

>  <dend_class_bayes>
1

>  <molprint_class_bayes>
1

>  <RF_canvas>
1

>  <DNN_canvas>
1

$$$$
mcl886_24
  MOE2015           3D

 74 77  0  0  1  0  0  0  0  0999 V2000
   18.6560   12.1870   29.4790 C   0  0  0  0  0  0  0  0  0  0  0  0
   19.6190   12.6670   30.5610 C   0  0  0  0  0  0  0  0  0  0  0  0
   20.2640   13.5820   29.5240 C   0  0  0  0  0  0  0  0  0  0  0  0
   19.6500   12.7030   28.4100 C   0  0  0  0  0  0  0  0  0  0  0  0
   20.6260   11.7010   27.8200 C   0  0  0  0  0  0  0  0  0  0  0  0
   19.0640   13.4700   27.3470 O   0  0  0  0  0  0  0  0  0  0  0  0
   18.4380   12.7550   26.3620 C   0  0  0  0  0  0  0  0  0  0  0  0
   17.4960   13.4400   25.6980 N   0  0  0  0  0  0  0  0  0  0  0  0
   16.8540   12.7890   24.7150 C   0  0  0  0  0  0  0  0  0  0  0  0
   17.0860   11.4640   24.3770 C   0  0  0  0  0  0  0  0  0  0  0  0
   16.2950   10.8020   23.2900 C   0  0  0  0  0  0  0  0  0  0  0  0
   14.9750   10.1330   23.7190 C   0  0  0  0  0  0  0  0  0  0  0  0
   14.0450   11.1090   24.4400 C   0  0  0  0  0  0  0  0  0  0  0  0
   15.2310    8.9260   24.6220 C   0  0  0  0  0  0  0  0  0  0  0  0
   14.2630    9.6450   22.4530 C   0  0  0  0  0  0  0  0  0  0  0  0
   18.0700   10.7870   25.0880 C   0  0  0  0  0  0  0  0  0  0  0  0
   18.7910   11.4420   26.0870 C   0  0  0  0  0  0  0  0  0  0  0  0
   19.8810   10.7640   26.8640 C   0  0  3  0  0  0  0  0  0  0  0  0
   20.8960   10.0440   26.0090 N   0  3  0  0  0  0  0  0  0  0  0  0
   21.6090   10.8670   24.9720 C   0  0  0  0  0  0  0  0  0  0  0  0
   22.1050    9.9250   23.8770 C   0  0  3  0  0  0  0  0  0  0  0  0
   21.0020    9.1170   23.4520 O   0  0  0  0  0  0  0  0  0  0  0  0
   22.7120   10.7010   22.6970 C   0  0  3  0  0  0  0  0  0  0  0  0
   23.8680   11.4800   23.1260 N   0  0  0  0  0  0  0  0  0  0  0  0
   23.7850   12.8370   23.3390 C   0  0  0  0  0  0  0  0  0  0  0  0
   25.0820   13.4710   23.7430 C   0  0  0  0  0  0  0  0  0  0  0  0
   22.7380   13.4660   23.2410 O   0  0  0  0  0  0  0  0  0  0  0  0
   23.0790    9.7680   21.5290 C   0  0  0  0  0  0  0  0  0  0  0  0
   23.7570   10.5030   20.4070 C   0  0  0  0  0  0  0  0  0  0  0  0
   25.0780   10.2110   20.0870 C   0  0  0  0  0  0  0  0  0  0  0  0
   25.7180   10.9410   19.1050 C   0  0  0  0  0  0  0  0  0  0  0  0
   26.9890   10.6640   18.8140 F   0  0  0  0  0  0  0  0  0  0  0  0
   25.0680   11.9510   18.4340 C   0  0  0  0  0  0  0  0  0  0  0  0
   25.7120   12.6470   17.4970 F   0  0  0  0  0  0  0  0  0  0  0  0
   23.7530   12.2460   18.7270 C   0  0  0  0  0  0  0  0  0  0  0  0
   23.0960   11.5170   19.7090 C   0  0  0  0  0  0  0  0  0  0  0  0
   17.6950   12.7160   29.4830 H   0  0  0  0  0  0  0  0  0  0  0  0
   18.4560   11.1120   29.4850 H   0  0  0  0  0  0  0  0  0  0  0  0
   20.2880   11.8830   30.9320 H   0  0  0  0  0  0  0  0  0  0  0  0
   19.1590   13.1700   31.4150 H   0  0  0  0  0  0  0  0  0  0  0  0
   21.3560   13.6290   29.5630 H   0  0  0  0  0  0  0  0  0  0  0  0
   19.8750   14.6080   29.5430 H   0  0  0  0  0  0  0  0  0  0  0  0
   21.1300   11.1120   28.5970 H   0  0  0  0  0  0  0  0  0  0  0  0
   21.4140   12.2570   27.2960 H   0  0  0  0  0  0  0  0  0  0  0  0
   16.1060   13.3820   24.1960 H   0  0  0  0  0  0  0  0  0  0  0  0
   16.9390   10.0640   22.7900 H   0  0  0  0  0  0  0  0  0  0  0  0
   16.0900   11.5550   22.5160 H   0  0  0  0  0  0  0  0  0  0  0  0
   14.4420   11.4150   25.4140 H   0  0  0  0  0  0  0  0  0  0  0  0
   13.0660   10.6540   24.6300 H   0  0  0  0  0  0  0  0  0  0  0  0
   13.8740   12.0120   23.8440 H   0  0  0  0  0  0  0  0  0  0  0  0
   15.6600    9.2210   25.5860 H   0  0  0  0  0  0  0  0  0  0  0  0
   15.9190    8.2150   24.1510 H   0  0  0  0  0  0  0  0  0  0  0  0
   14.3010    8.3880   24.8390 H   0  0  0  0  0  0  0  0  0  0  0  0
   14.0330   10.4770   21.7780 H   0  0  0  0  0  0  0  0  0  0  0  0
   13.3180    9.1440   22.6910 H   0  0  0  0  0  0  0  0  0  0  0  0
   14.8830    8.9300   21.8990 H   0  0  0  0  0  0  0  0  0  0  0  0
   18.2630    9.7430   24.8540 H   0  0  0  0  0  0  0  0  0  0  0  0
   19.4080    9.9730   27.4600 H   0  0  0  0  0  0  0  0  0  0  0  0
   20.4260    9.2860   25.4820 H   0  0  0  0  0  0  0  0  0  0  0  0
   21.5780    9.5610   26.6080 H   0  0  0  0  0  0  0  0  0  0  0  0
   22.4250   11.3900   25.4760 H   0  0  0  0  0  0  0  0  0  0  0  0
   20.8960   11.5860   24.5610 H   0  0  0  0  0  0  0  0  0  0  0  0
   22.8530    9.2440   24.3000 H   0  0  0  0  0  0  0  0  0  0  0  0
   20.4890    9.5960   22.7740 H   0  0  0  0  0  0  0  0  0  0  0  0
   21.9430   11.3930   22.3260 H   0  0  0  0  0  0  0  0  0  0  0  0
   24.7620   11.0140   23.2530 H   0  0  0  0  0  0  0  0  0  0  0  0
   25.9240   12.9980   23.2290 H   0  0  0  0  0  0  0  0  0  0  0  0
   25.2130   13.3660   24.8240 H   0  0  0  0  0  0  0  0  0  0  0  0
   25.0680   14.5320   23.4790 H   0  0  0  0  0  0  0  0  0  0  0  0
   22.1850    9.2750   21.1280 H   0  0  0  0  0  0  0  0  0  0  0  0
   23.7320    8.9650   21.8960 H   0  0  0  0  0  0  0  0  0  0  0  0
   25.6290    9.4280   20.6000 H   0  0  0  0  0  0  0  0  0  0  0  0
   23.2450   13.0420   18.1930 H   0  0  0  0  0  0  0  0  0  0  0  0
   22.0610   11.7620   19.9360 H   0  0  0  0  0  0  0  0  0  0  0  0
  1  2  1  0  0  0  0
  1  4  1  0  0  0  0
  1 37  1  0  0  0  0
  1 38  1  0  0  0  0
  2  3  1  0  0  0  0
  2 39  1  0  0  0  0
  2 40  1  0  0  0  0
  3  4  1  0  0  0  0
  3 41  1  0  0  0  0
  3 42  1  0  0  0  0
  4  5  1  0  0  0  0
  4  6  1  0  0  0  0
  5 18  1  0  0  0  0
  5 43  1  0  0  0  0
  5 44  1  0  0  0  0
  6  7  1  0  0  0  0
  7  8  1  0  0  0  0
  7 17  2  0  0  0  0
  8  9  2  0  0  0  0
  9 10  1  0  0  0  0
  9 45  1  0  0  0  0
 10 11  1  0  0  0  0
 10 16  2  0  0  0  0
 11 12  1  0  0  0  0
 11 46  1  0  0  0  0
 11 47  1  0  0  0  0
 12 13  1  0  0  0  0
 12 14  1  0  0  0  0
 12 15  1  0  0  0  0
 13 48  1  0  0  0  0
 13 49  1  0  0  0  0
 13 50  1  0  0  0  0
 14 51  1  0  0  0  0
 14 52  1  0  0  0  0
 14 53  1  0  0  0  0
 15 54  1  0  0  0  0
 15 55  1  0  0  0  0
 15 56  1  0  0  0  0
 16 17  1  0  0  0  0
 16 57  1  0  0  0  0
 17 18  1  0  0  0  0
 18 19  1  0  0  0  0
 18 58  1  0  0  0  0
 19 20  1  0  0  0  0
 19 59  1  0  0  0  0
 19 60  1  0  0  0  0
 20 21  1  0  0  0  0
 20 61  1  0  0  0  0
 20 62  1  0  0  0  0
 21 22  1  0  0  0  0
 21 23  1  0  0  0  0
 21 63  1  0  0  0  0
 22 64  1  0  0  0  0
 23 24  1  0  0  0  0
 23 28  1  0  0  0  0
 23 65  1  0  0  0  0
 24 25  1  0  0  0  0
 24 66  1  0  0  0  0
 25 26  1  0  0  0  0
 25 27  2  0  0  0  0
 26 67  1  0  0  0  0
 26 68  1  0  0  0  0
 26 69  1  0  0  0  0
 28 29  1  0  0  0  0
 28 70  1  0  0  0  0
 28 71  1  0  0  0  0
 29 30  1  0  0  0  0
 29 36  2  0  0  0  0
 30 31  2  0  0  0  0
 30 72  1  0  0  0  0
 31 32  1  0  0  0  0
 31 33  1  0  0  0  0
 33 34  1  0  0  0  0
 33 35  2  0  0  0  0
 35 36  1  0  0  0  0
 35 73  1  0  0  0  0
 36 74  1  0  0  0  0
M  CHG  1  19   1
M  END
>  <PARENT_CMPD_ID>
mcl886_24

>  <STANDARD_TYPE>
IC50

>  <RELATION>
=

>  <STANDARD_VALUE>
2

>  <STANDARD_UNITS>
nM

>  <COMPOUND_KEY>
24

>  <PUBMED_ID>
24900403

>  <JOURNAL>
ACS Med. Chem. Lett.

>  <YEAR>
2012

>  <VOLUME>
3

>  <FIRST_PAGE>
886

>  <Company>
Amgen

>  <idx>
287

>  <Model>
Valid

>  <target>
8.6989698

>  <des_pred_mlr>
6.67805

>  <RF_Canvas>
7.986475

>  <DNN_Canvas>
7.8176236

>  <pred_CoMFA>
7.9842

>  <pred_COMSIA>
7.4017

>  <pred_abm5>
8.0726233

>  <pred_ff8>
7.5615611

>  <pred_gau6>
7.8472371

>  <CID>
BACE_287

>  <active>
1

>  <des_class_bayes>
0

>  <maacs_class_bayes>
1

>  <radial_class_bayes>
1

>  <dend_class_bayes>
1

>  <molprint_class_bayes>
1

>  <RF_canvas>
1

>  <DNN_canvas>
1

$$$$
CHEMBL539973
  MOE2015           3D

 88 90  0  0  1  0  0  0  0  0999 V2000
   30.4700   10.8200   20.9200 C   0  0  0  0  0  0  0  0  0  0  0  0
   30.3260   12.2940   21.2280 C   0  0  0  0  0  0  0  0  0  0  0  0
   28.8750   12.6230   21.4750 C   0  0  0  0  0  0  0  0  0  0  0  0
   28.6710   13.9830   21.9190 N   0  0  0  0  0  0  0  0  0  0  0  0
   28.8160   15.0960   21.0060 C   0  0  0  0  0  0  0  0  0  0  0  0
   27.8290   15.0860   19.8670 C   0  0  0  0  0  0  0  0  0  0  0  0
   28.0140   16.3290   19.0250 C   0  0  0  0  0  0  0  0  0  0  0  0
   28.4630   14.2180   23.2620 C   0  0  0  0  0  0  0  0  0  0  0  0
   29.3410   14.0620   24.0990 O   0  0  0  0  0  0  0  0  0  0  0  0
   27.0950   14.6280   23.6360 C   0  0  0  0  0  0  0  0  0  0  0  0
   26.8900   15.7840   24.3850 C   0  0  0  0  0  0  0  0  0  0  0  0
   25.6000   16.1420   24.7760 C   0  0  0  0  0  0  0  0  0  0  0  0
   24.5400   15.2860   24.4500 C   0  0  0  0  0  0  0  0  0  0  0  0
   24.7510   14.1170   23.7320 C   0  0  0  0  0  0  0  0  0  0  0  0
   26.0300   13.8010   23.2930 C   0  0  0  0  0  0  0  0  0  0  0  0
   23.5860   13.2480   23.4580 C   0  0  0  0  0  0  0  0  0  0  0  0
   22.4490   13.6970   23.3840 O   0  0  0  0  0  0  0  0  0  0  0  0
   23.8530   11.9050   23.3480 N   0  0  0  0  0  0  0  0  0  0  0  0
   22.8320   10.9450   22.9500 C   0  0  3  0  0  0  0  0  0  0  0  0
   23.3760   10.0180   21.8510 C   0  0  0  0  0  0  0  0  0  0  0  0
   23.9140   10.7850   20.6700 C   0  0  0  0  0  0  0  0  0  0  0  0
   23.1260   11.7140   19.9890 C   0  0  0  0  0  0  0  0  0  0  0  0
   23.6650   12.4600   18.9530 C   0  0  0  0  0  0  0  0  0  0  0  0
   22.9020   13.3640   18.3370 F   0  0  0  0  0  0  0  0  0  0  0  0
   24.9740   12.2910   18.5560 C   0  0  0  0  0  0  0  0  0  0  0  0
   25.7440   11.3540   19.2120 C   0  0  0  0  0  0  0  0  0  0  0  0
   27.0120   11.1730   18.8430 F   0  0  0  0  0  0  0  0  0  0  0  0
   25.2330   10.6020   20.2570 C   0  0  0  0  0  0  0  0  0  0  0  0
   22.3350   10.1990   24.1960 C   0  0  3  0  0  0  0  0  0  0  0  0
   23.4380    9.7000   24.9550 O   0  0  0  0  0  0  0  0  0  0  0  0
   21.5210   11.1340   25.0920 C   0  0  0  0  0  0  0  0  0  0  0  0
   20.8840   10.3180   26.1780 N   0  3  0  0  0  0  0  0  0  0  0  0
   19.9450   11.0830   27.0560 C   0  0  0  0  0  0  0  0  0  0  0  0
   18.7380   11.6000   26.3180 C   0  0  0  0  0  0  0  0  0  0  0  0
   18.4380   12.9630   26.3150 C   0  0  0  0  0  0  0  0  0  0  0  0
   17.3680   13.4500   25.5710 C   0  0  0  0  0  0  0  0  0  0  0  0
   16.5910   12.5820   24.8170 C   0  0  0  0  0  0  0  0  0  0  0  0
   16.8530   11.2190   24.8350 C   0  0  0  0  0  0  0  0  0  0  0  0
   16.0780   10.4290   24.0330 O   0  0  0  0  0  0  0  0  0  0  0  0
   15.6570    9.2200   24.6500 C   0  0  0  0  0  0  0  0  0  0  0  0
   17.9190   10.7300   25.5880 C   0  0  0  0  0  0  0  0  0  0  0  0
   25.2440   17.4040   25.5210 C   0  0  3  0  0  0  0  0  0  0  0  0
   26.4050   18.2970   25.9130 C   0  0  0  0  0  0  0  0  0  0  0  0
   24.3640   18.1690   24.6940 O   0  0  0  0  0  0  0  0  0  0  0  0
   31.5190   10.5750   20.7270 H   0  0  0  0  0  0  0  0  0  0  0  0
   29.8910   10.5430   20.0320 H   0  0  0  0  0  0  0  0  0  0  0  0
   30.1290   10.2030   21.7580 H   0  0  0  0  0  0  0  0  0  0  0  0
   30.7180   12.8830   20.3920 H   0  0  0  0  0  0  0  0  0  0  0  0
   30.9330   12.5440   22.1060 H   0  0  0  0  0  0  0  0  0  0  0  0
   28.4830   11.9510   22.2500 H   0  0  0  0  0  0  0  0  0  0  0  0
   28.2750   12.4500   20.5790 H   0  0  0  0  0  0  0  0  0  0  0  0
   28.7160   16.0280   21.5770 H   0  0  0  0  0  0  0  0  0  0  0  0
   29.8440   15.0790   20.6250 H   0  0  0  0  0  0  0  0  0  0  0  0
   27.9680   14.2030   19.2330 H   0  0  0  0  0  0  0  0  0  0  0  0
   26.8030   15.0470   20.2490 H   0  0  0  0  0  0  0  0  0  0  0  0
   29.0250   16.3790   18.6060 H   0  0  0  0  0  0  0  0  0  0  0  0
   27.8410   17.2370   19.6120 H   0  0  0  0  0  0  0  0  0  0  0  0
   27.3050   16.3290   18.1900 H   0  0  0  0  0  0  0  0  0  0  0  0
   27.7500   16.3980   24.6420 H   0  0  0  0  0  0  0  0  0  0  0  0
   23.5280   15.5470   24.7640 H   0  0  0  0  0  0  0  0  0  0  0  0
   26.2100   12.9140   22.6940 H   0  0  0  0  0  0  0  0  0  0  0  0
   24.7750   11.5450   23.5660 H   0  0  0  0  0  0  0  0  0  0  0  0
   21.9770   11.4900   22.5300 H   0  0  0  0  0  0  0  0  0  0  0  0
   24.1670    9.3800   22.2640 H   0  0  0  0  0  0  0  0  0  0  0  0
   22.5840    9.3440   21.5010 H   0  0  0  0  0  0  0  0  0  0  0  0
   22.0900   11.8890   20.2640 H   0  0  0  0  0  0  0  0  0  0  0  0
   25.3870   12.8800   17.7460 H   0  0  0  0  0  0  0  0  0  0  0  0
   25.8840    9.8810   20.7450 H   0  0  0  0  0  0  0  0  0  0  0  0
   21.7130    9.3470   23.8940 H   0  0  0  0  0  0  0  0  0  0  0  0
   23.8540    8.9700   24.4600 H   0  0  0  0  0  0  0  0  0  0  0  0
   20.7230   11.6190   24.5250 H   0  0  0  0  0  0  0  0  0  0  0  0
   22.1440   11.8770   25.6000 H   0  0  0  0  0  0  0  0  0  0  0  0
   20.3990    9.5070   25.7780 H   0  0  0  0  0  0  0  0  0  0  0  0
   21.6550    9.9300   26.7410 H   0  0  0  0  0  0  0  0  0  0  0  0
   19.6300   10.3950   27.8480 H   0  0  0  0  0  0  0  0  0  0  0  0
   20.5270   11.8900   27.5140 H   0  0  0  0  0  0  0  0  0  0  0  0
   19.0450   13.6700   26.8770 H   0  0  0  0  0  0  0  0  0  0  0  0
   17.1490   14.5150   25.5640 H   0  0  0  0  0  0  0  0  0  0  0  0
   15.7710   12.9690   24.2170 H   0  0  0  0  0  0  0  0  0  0  0  0
   14.7970    8.8390   24.0900 H   0  0  0  0  0  0  0  0  0  0  0  0
   15.3370    9.3770   25.6870 H   0  0  0  0  0  0  0  0  0  0  0  0
   16.4470    8.4640   24.5990 H   0  0  0  0  0  0  0  0  0  0  0  0
   18.1300    9.6660   25.5780 H   0  0  0  0  0  0  0  0  0  0  0  0
   24.6950   17.1360   26.4310 H   0  0  0  0  0  0  0  0  0  0  0  0
   26.9440   18.6650   25.0320 H   0  0  0  0  0  0  0  0  0  0  0  0
   27.1130   17.7800   26.5680 H   0  0  0  0  0  0  0  0  0  0  0  0
   26.0380   19.1860   26.4390 H   0  0  0  0  0  0  0  0  0  0  0  0
   24.6510   18.0620   23.7710 H   0  0  0  0  0  0  0  0  0  0  0  0
  1  2  1  0  0  0  0
  1 45  1  0  0  0  0
  1 46  1  0  0  0  0
  1 47  1  0  0  0  0
  2  3  1  0  0  0  0
  2 48  1  0  0  0  0
  2 49  1  0  0  0  0
  3  4  1  0  0  0  0
  3 50  1  0  0  0  0
  3 51  1  0  0  0  0
  4  5  1  0  0  0  0
  4  8  1  0  0  0  0
  5  6  1  0  0  0  0
  5 52  1  0  0  0  0
  5 53  1  0  0  0  0
  6  7  1  0  0  0  0
  6 54  1  0  0  0  0
  6 55  1  0  0  0  0
  7 56  1  0  0  0  0
  7 57  1  0  0  0  0
  7 58  1  0  0  0  0
  8  9  2  0  0  0  0
  8 10  1  0  0  0  0
 10 11  1  0  0  0  0
 10 15  2  0  0  0  0
 11 12  2  0  0  0  0
 11 59  1  0  0  0  0
 12 13  1  0  0  0  0
 12 42  1  0  0  0  0
 13 14  2  0  0  0  0
 13 60  1  0  0  0  0
 14 15  1  0  0  0  0
 14 16  1  0  0  0  0
 15 61  1  0  0  0  0
 16 17  2  0  0  0  0
 16 18  1  0  0  0  0
 18 19  1  0  0  0  0
 18 62  1  0  0  0  0
 19 20  1  0  0  0  0
 19 29  1  0  0  0  0
 19 63  1  0  0  0  0
 20 21  1  0  0  0  0
 20 64  1  0  0  0  0
 20 65  1  0  0  0  0
 21 22  1  0  0  0  0
 21 28  2  0  0  0  0
 22 23  2  0  0  0  0
 22 66  1  0  0  0  0
 23 24  1  0  0  0  0
 23 25  1  0  0  0  0
 25 26  2  0  0  0  0
 25 67  1  0  0  0  0
 26 27  1  0  0  0  0
 26 28  1  0  0  0  0
 28 68  1  0  0  0  0
 29 30  1  0  0  0  0
 29 31  1  0  0  0  0
 29 69  1  0  0  0  0
 30 70  1  0  0  0  0
 31 32  1  0  0  0  0
 31 71  1  0  0  0  0
 31 72  1  0  0  0  0
 32 33  1  0  0  0  0
 32 73  1  0  0  0  0
 32 74  1  0  0  0  0
 33 34  1  0  0  0  0
 33 75  1  0  0  0  0
 33 76  1  0  0  0  0
 34 35  1  0  0  0  0
 34 41  2  0  0  0  0
 35 36  2  0  0  0  0
 35 77  1  0  0  0  0
 36 37  1  0  0  0  0
 36 78  1  0  0  0  0
 37 38  2  0  0  0  0
 37 79  1  0  0  0  0
 38 39  1  0  0  0  0
 38 41  1  0  0  0  0
 39 40  1  0  0  0  0
 40 80  1  0  0  0  0
 40 81  1  0  0  0  0
 40 82  1  0  0  0  0
 41 83  1  0  0  0  0
 42 43  1  0  0  0  0
 42 44  1  0  0  0  0
 42 84  1  0  0  0  0
 43 85  1  0  0  0  0
 43 86  1  0  0  0  0
 43 87  1  0  0  0  0
 44 88  1  0  0  0  0
M  CHG  1  32   1
M  END
>  <PARENT_CMPD_ID>
CHEMBL539973

>  <STANDARD_TYPE>
IC50

>  <RELATION>
=

>  <STANDARD_VALUE>
2

>  <STANDARD_UNITS>
nM

>  <COMPOUND_KEY>
1j

>  <PUBMED_ID>
19375914

>  <JOURNAL>
Bioorg. Med. Chem. Lett.

>  <YEAR>
2009

>  <VOLUME>
19

>  <FIRST_PAGE>
2654

>  <Company>
BMS

>  <idx>
288

>  <Model>
Valid

>  <target>
8.6989698

>  <des_pred_mlr>
7.5453501

>  <RF_Canvas>
7.8516583

>  <DNN_Canvas>
7.3104768

>  <pred_CoMFA>
6.9084001

>  <pred_COMSIA>
8.7222996

>  <pred_abm5>
7.3238797

>  <pred_ff8>
6.8611751

>  <pred_gau6>
7.3605294

>  <CID>
BACE_288

>  <active>
1

>  <des_class_bayes>
1

>  <maacs_class_bayes>
1

>  <radial_class_bayes>
1

>  <dend_class_bayes>
1

>  <molprint_class_bayes>
1

>  <RF_canvas>
1

>  <DNN_canvas>
1

$$$$
CHEMBL595136
  MOE2015           3D

 98102  0  0  1  0  0  0  0  0999 V2000
   24.2360   11.5490   23.0320 N   0  0  0  0  0  0  0  0  0  0  0  0
   23.0750   10.7500   22.6390 C   0  0  3  0  0  0  0  0  0  0  0  0
   23.4740    9.7150   21.5620 C   0  0  0  0  0  0  0  0  0  0  0  0
   24.2130   10.3430   20.4060 C   0  0  0  0  0  0  0  0  0  0  0  0
   25.6090   10.2540   20.3380 C   0  0  0  0  0  0  0  0  0  0  0  0
   26.3240   10.9300   19.3550 C   0  0  0  0  0  0  0  0  0  0  0  0
   25.6200   11.6640   18.4030 C   0  0  0  0  0  0  0  0  0  0  0  0
   24.2320   11.7240   18.4330 C   0  0  0  0  0  0  0  0  0  0  0  0
   23.5310   11.0740   19.4380 C   0  0  0  0  0  0  0  0  0  0  0  0
   27.6810   10.9990   19.2360 O   0  0  0  0  0  0  0  0  0  0  0  0
   28.5050   10.1610   20.0400 C   0  0  0  0  0  0  0  0  0  0  0  0
   29.8380   10.8720   20.2660 C   0  0  0  0  0  0  0  0  0  0  0  0
   29.6940   12.1500   21.0900 C   0  0  0  0  0  0  0  0  0  0  0  0
   29.4850   11.8820   22.5780 C   0  0  0  0  0  0  0  0  0  0  0  0
   29.1940   13.1190   23.2740 N   0  0  0  0  0  0  0  0  0  0  0  0
   27.9410   13.6700   23.4540 C   0  0  0  0  0  0  0  0  0  0  0  0
   26.7460   13.0300   23.1080 C   0  0  0  0  0  0  0  0  0  0  0  0
   25.5000   13.6180   23.3540 C   0  0  0  0  0  0  0  0  0  0  0  0
   25.4410   14.8910   23.9030 C   0  0  0  0  0  0  0  0  0  0  0  0
   26.6130   15.5420   24.2510 C   0  0  0  0  0  0  0  0  0  0  0  0
   26.5230   16.8560   24.8170 N   0  0  0  0  0  0  0  0  0  0  0  0
   27.2470   17.0770   26.0910 C   0  0  0  0  0  0  0  0  0  0  0  0
   26.8690   17.9690   26.5970 H   0  0  0  0  0  0  0  0  0  0  0  0
   28.3230   17.1850   25.9270 H   0  0  0  0  0  0  0  0  0  0  0  0
   27.0810   16.2330   26.7700 H   0  0  0  0  0  0  0  0  0  0  0  0
   27.8470   14.9470   24.0090 C   0  0  0  0  0  0  0  0  0  0  0  0
   24.2150   12.9300   23.0500 C   0  0  0  0  0  0  0  0  0  0  0  0
   23.1900   13.5780   22.8700 O   0  0  0  0  0  0  0  0  0  0  0  0
   22.4420   10.0720   23.8770 C   0  0  3  0  0  0  0  0  0  0  0  0
   21.2720    9.3140   23.5430 O   0  0  0  0  0  0  0  0  0  0  0  0
   22.0080   11.1220   24.9060 C   0  0  0  0  0  0  0  0  0  0  0  0
   21.2960   10.4290   26.0240 N   0  3  0  0  0  0  0  0  0  0  0  0
   20.3990   11.2940   26.8320 C   0  0  0  0  0  0  0  0  0  0  0  0
   20.1600   10.8040   28.2430 C   0  0  0  0  0  0  0  0  0  0  0  0
   21.0440   11.9820   28.0100 C   0  0  0  0  0  0  0  0  0  0  0  0
   19.2220   11.9190   26.1100 C   0  0  0  0  0  0  0  0  0  0  0  0
   18.2070   11.1150   25.5700 C   0  0  0  0  0  0  0  0  0  0  0  0
   17.1090   11.6480   24.8900 C   0  0  0  0  0  0  0  0  0  0  0  0
   17.0320   13.0310   24.7450 C   0  0  0  0  0  0  0  0  0  0  0  0
   18.0190   13.8520   25.2640 C   0  0  0  0  0  0  0  0  0  0  0  0
   19.1040   13.3000   25.9300 C   0  0  0  0  0  0  0  0  0  0  0  0
   16.0370   10.7780   24.2750 C   0  0  0  0  0  0  0  0  0  0  0  0
   16.4630   10.3220   22.8870 C   0  0  0  0  0  0  0  0  0  0  0  0
   15.6490    9.5800   25.1330 C   0  0  0  0  0  0  0  0  0  0  0  0
   25.0840   11.0570   23.2880 H   0  0  0  0  0  0  0  0  0  0  0  0
   22.3270   11.4160   22.1880 H   0  0  0  0  0  0  0  0  0  0  0  0
   22.5830    9.2020   21.1790 H   0  0  0  0  0  0  0  0  0  0  0  0
   24.0990    8.9340   22.0130 H   0  0  0  0  0  0  0  0  0  0  0  0
   26.1110    9.6600   21.0930 H   0  0  0  0  0  0  0  0  0  0  0  0
   26.1630   12.2000   17.6280 H   0  0  0  0  0  0  0  0  0  0  0  0
   23.6960   12.2960   17.6800 H   0  0  0  0  0  0  0  0  0  0  0  0
   22.4470   11.1530   19.4650 H   0  0  0  0  0  0  0  0  0  0  0  0
   28.6720    9.2240   19.4970 H   0  0  0  0  0  0  0  0  0  0  0  0
   28.0750    9.9210   21.0130 H   0  0  0  0  0  0  0  0  0  0  0  0
   30.2580   11.1450   19.2900 H   0  0  0  0  0  0  0  0  0  0  0  0
   30.5470   10.1910   20.7480 H   0  0  0  0  0  0  0  0  0  0  0  0
   28.8800   12.7680   20.6910 H   0  0  0  0  0  0  0  0  0  0  0  0
   30.6080   12.7480   20.9720 H   0  0  0  0  0  0  0  0  0  0  0  0
   30.4150   11.4720   22.9910 H   0  0  0  0  0  0  0  0  0  0  0  0
   28.7210   11.1240   22.7710 H   0  0  0  0  0  0  0  0  0  0  0  0
   29.9930   13.6290   23.6380 H   0  0  0  0  0  0  0  0  0  0  0  0
   26.7920   12.0650   22.6190 H   0  0  0  0  0  0  0  0  0  0  0  0
   24.4840   15.3770   24.0770 H   0  0  0  0  0  0  0  0  0  0  0  0
   28.7570   15.4880   24.2570 H   0  0  0  0  0  0  0  0  0  0  0  0
   23.1580    9.3820   24.3390 H   0  0  0  0  0  0  0  0  0  0  0  0
   20.7880    9.7850   22.8370 H   0  0  0  0  0  0  0  0  0  0  0  0
   21.3060   11.8250   24.4470 H   0  0  0  0  0  0  0  0  0  0  0  0
   22.8470   11.6660   25.3500 H   0  0  0  0  0  0  0  0  0  0  0  0
   21.9680    9.9410   26.6260 H   0  0  0  0  0  0  0  0  0  0  0  0
   20.7330    9.6900   25.5700 H   0  0  0  0  0  0  0  0  0  0  0  0
   20.6190    9.8810   28.5780 H   0  0  0  0  0  0  0  0  0  0  0  0
   19.1930   10.9870   28.7020 H   0  0  0  0  0  0  0  0  0  0  0  0
   20.6720   12.9440   28.3470 H   0  0  0  0  0  0  0  0  0  0  0  0
   22.1070   11.8580   28.1810 H   0  0  0  0  0  0  0  0  0  0  0  0
   18.2830   10.0360   25.6880 H   0  0  0  0  0  0  0  0  0  0  0  0
   16.1960   13.4830   24.2140 H   0  0  0  0  0  0  0  0  0  0  0  0
   17.9490   14.9300   25.1380 H   0  0  0  0  0  0  0  0  0  0  0  0
   19.8700   13.9720   26.3120 H   0  0  0  0  0  0  0  0  0  0  0  0
   15.1280   11.3860   24.1660 H   0  0  0  0  0  0  0  0  0  0  0  0
   17.3660    9.7010   22.9250 H   0  0  0  0  0  0  0  0  0  0  0  0
   16.6790   11.1770   22.2370 H   0  0  0  0  0  0  0  0  0  0  0  0
   15.6720    9.7340   22.4100 H   0  0  0  0  0  0  0  0  0  0  0  0
   16.4490    8.8360   25.1980 H   0  0  0  0  0  0  0  0  0  0  0  0
   14.7740    9.0750   24.7090 H   0  0  0  0  0  0  0  0  0  0  0  0
   15.3910    9.8900   26.1520 H   0  0  0  0  0  0  0  0  0  0  0  0
   26.5950   18.1310   23.6740 S   0  0  0  0  0  0  0  0  0  0  0  0
   25.4770   19.3090   24.4300 C   0  0  0  0  0  0  0  0  0  0  0  0
   25.9010   19.6050   25.3930 H   0  0  0  0  0  0  0  0  0  0  0  0
   24.5240   18.7960   24.5910 H   0  0  0  0  0  0  0  0  0  0  0  0
   25.2840   20.5340   23.5440 C   0  0  0  0  0  0  0  0  0  0  0  0
   24.3450   21.5410   24.1880 C   0  0  0  0  0  0  0  0  0  0  0  0
   24.2180   22.4110   23.5370 H   0  0  0  0  0  0  0  0  0  0  0  0
   24.7410   21.8880   25.1470 H   0  0  0  0  0  0  0  0  0  0  0  0
   23.3580   21.1000   24.3620 H   0  0  0  0  0  0  0  0  0  0  0  0
   24.8780   20.2350   22.5700 H   0  0  0  0  0  0  0  0  0  0  0  0
   26.2500   21.0130   23.3490 H   0  0  0  0  0  0  0  0  0  0  0  0
   27.9290   18.6950   23.6870 O   0  0  0  0  0  0  0  0  0  0  0  0
   25.9700   17.6920   22.4420 O   0  0  0  0  0  0  0  0  0  0  0  0
  1  2  1  0  0  0  0
  1 27  1  0  0  0  0
  1 45  1  0  0  0  0
  2  3  1  0  0  0  0
  2 29  1  0  0  0  0
  2 46  1  0  0  0  0
  3  4  1  0  0  0  0
  3 47  1  0  0  0  0
  3 48  1  0  0  0  0
  4  5  1  0  0  0  0
  4  9  2  0  0  0  0
  5  6  2  0  0  0  0
  5 49  1  0  0  0  0
  6  7  1  0  0  0  0
  6 10  1  0  0  0  0
  7  8  2  0  0  0  0
  7 50  1  0  0  0  0
  8  9  1  0  0  0  0
  8 51  1  0  0  0  0
  9 52  1  0  0  0  0
 10 11  1  0  0  0  0
 11 12  1  0  0  0  0
 11 53  1  0  0  0  0
 11 54  1  0  0  0  0
 12 13  1  0  0  0  0
 12 55  1  0  0  0  0
 12 56  1  0  0  0  0
 13 14  1  0  0  0  0
 13 57  1  0  0  0  0
 13 58  1  0  0  0  0
 14 15  1  0  0  0  0
 14 59  1  0  0  0  0
 14 60  1  0  0  0  0
 15 16  1  0  0  0  0
 15 61  1  0  0  0  0
 16 17  1  0  0  0  0
 16 26  2  0  0  0  0
 17 18  2  0  0  0  0
 17 62  1  0  0  0  0
 18 19  1  0  0  0  0
 18 27  1  0  0  0  0
 19 20  2  0  0  0  0
 19 63  1  0  0  0  0
 20 21  1  0  0  0  0
 20 26  1  0  0  0  0
 21 22  1  0  0  0  0
 21 86  1  0  0  0  0
 22 23  1  0  0  0  0
 22 24  1  0  0  0  0
 22 25  1  0  0  0  0
 26 64  1  0  0  0  0
 27 28  2  0  0  0  0
 29 30  1  0  0  0  0
 29 31  1  0  0  0  0
 29 65  1  0  0  0  0
 30 66  1  0  0  0  0
 31 32  1  0  0  0  0
 31 67  1  0  0  0  0
 31 68  1  0  0  0  0
 32 33  1  0  0  0  0
 32 69  1  0  0  0  0
 32 70  1  0  0  0  0
 33 34  1  0  0  0  0
 33 35  1  0  0  0  0
 33 36  1  0  0  0  0
 34 35  1  0  0  0  0
 34 71  1  0  0  0  0
 34 72  1  0  0  0  0
 35 73  1  0  0  0  0
 35 74  1  0  0  0  0
 36 37  1  0  0  0  0
 36 41  2  0  0  0  0
 37 38  2  0  0  0  0
 37 75  1  0  0  0  0
 38 39  1  0  0  0  0
 38 42  1  0  0  0  0
 39 40  2  0  0  0  0
 39 76  1  0  0  0  0
 40 41  1  0  0  0  0
 40 77  1  0  0  0  0
 41 78  1  0  0  0  0
 42 43  1  0  0  0  0
 42 44  1  0  0  0  0
 42 79  1  0  0  0  0
 43 80  1  0  0  0  0
 43 81  1  0  0  0  0
 43 82  1  0  0  0  0
 44 83  1  0  0  0  0
 44 84  1  0  0  0  0
 44 85  1  0  0  0  0
 86 87  1  0  0  0  0
 86 97  2  0  0  0  0
 86 98  2  0  0  0  0
 87 88  1  0  0  0  0
 87 89  1  0  0  0  0
 87 90  1  0  0  0  0
 90 91  1  0  0  0  0
 90 95  1  0  0  0  0
 90 96  1  0  0  0  0
 91 92  1  0  0  0  0
 91 93  1  0  0  0  0
 91 94  1  0  0  0  0
M  CHG  1  32   1
M  END
>  <PARENT_CMPD_ID>
CHEMBL595136

>  <STANDARD_TYPE>
IC50

>  <RELATION>
=

>  <STANDARD_VALUE>
2

>  <STANDARD_UNITS>
nM

>  <COMPOUND_KEY>
23

>  <PUBMED_ID>
19963375

>  <JOURNAL>
Bioorg. Med. Chem. Lett.

>  <YEAR>
2010

>  <VOLUME>
20

>  <FIRST_PAGE>
603

>  <Company>
Novartis

>  <idx>
289

>  <Model>
Valid

>  <target>
8.6989698

>  <des_pred_mlr>
8.4148197

>  <RF_Canvas>
7.6211872

>  <DNN_Canvas>
8.0454721

>  <pred_CoMFA>
7.7631998

>  <pred_COMSIA>
9.0513

>  <pred_abm5>
7.9120655

>  <pred_ff8>
6.7540064

>  <pred_gau6>
8.5313091

>  <CID>
BACE_289

>  <active>
1

>  <des_class_bayes>
1

>  <maacs_class_bayes>
1

>  <radial_class_bayes>
1

>  <dend_class_bayes>
1

>  <molprint_class_bayes>
1

>  <RF_canvas>
1

>  <DNN_canvas>
1

$$$$
22380629_60j
  MOE2015           3D
HYDROLASE/HYDROLASE INHIBITOR
 72 74  0  0  1  0  0  0  0  0999 V2000
   29.2370   10.1990   20.7980 C   0  0  0  0  0  0  0  0  0  0  0  0
   30.0870   10.1010   21.8330 F   0  0  0  0  0  0  0  0  0  0  0  0
   29.9600   10.1350   19.6710 F   0  0  0  0  0  0  0  0  0  0  0  0
   28.4540    9.1030   20.8360 F   0  0  0  0  0  0  0  0  0  0  0  0
   28.3980   11.4420   20.8740 C   0  0  0  0  0  0  0  0  0  0  0  0
   27.8310   11.4660   21.8120 H   0  0  0  0  0  0  0  0  0  0  0  0
   27.5610   11.5220   19.7150 O   0  0  0  0  0  0  0  0  0  0  0  0
   26.2060   11.4760   19.9050 C   0  0  0  0  0  0  0  0  0  0  0  0
   25.4450   12.2350   19.0110 C   0  0  0  0  0  0  0  0  0  0  0  0
   24.0590   12.2040   19.1420 C   0  0  0  0  0  0  0  0  0  0  0  0
   23.4310   11.4540   20.1280 C   0  0  0  0  0  0  0  0  0  0  0  0
   22.3470   11.4810   20.1920 H   0  0  0  0  0  0  0  0  0  0  0  0
   24.1880   10.6940   21.0180 C   0  0  0  0  0  0  0  0  0  0  0  0
   25.5780   10.6900   20.8770 C   0  0  0  0  0  0  0  0  0  0  0  0
   26.1680   10.0560   21.5350 H   0  0  0  0  0  0  0  0  0  0  0  0
   23.5340    9.9350   22.1470 C   0  0  0  0  0  0  0  0  0  0  0  0
   24.2610    9.2630   22.6200 H   0  0  0  0  0  0  0  0  0  0  0  0
   22.7610    9.2860   21.7170 H   0  0  0  0  0  0  0  0  0  0  0  0
   22.9210   10.8630   23.2130 C   0  0  3  0  0  0  0  0  0  0  0  0
   22.1370   11.4460   22.7090 H   0  0  0  0  0  0  0  0  0  0  0  0
   22.2360   10.0810   24.3620 C   0  0  3  0  0  0  0  0  0  0  0  0
   22.9790    9.4610   24.8790 H   0  0  0  0  0  0  0  0  0  0  0  0
   21.5270   11.0110   25.3790 C   0  0  3  0  0  0  0  0  0  0  0  0
   20.7180   11.5270   24.8510 H   0  0  0  0  0  0  0  0  0  0  0  0
   22.4570   11.9970   26.0530 C   0  0  0  0  0  0  0  0  0  0  0  0
   23.2600   11.4950   26.6030 H   0  0  0  0  0  0  0  0  0  0  0  0
   21.9270   12.6600   26.7420 H   0  0  0  0  0  0  0  0  0  0  0  0
   23.2070   13.0350   24.8280 S   0  0  0  0  0  0  0  0  0  0  0  0
   23.9680   11.8260   23.7780 C   0  0  0  0  0  0  0  0  0  0  0  0
   24.4700   12.4050   22.9980 H   0  0  0  0  0  0  0  0  0  0  0  0
   24.7320   11.3020   24.3620 H   0  0  0  0  0  0  0  0  0  0  0  0
   24.2420   13.8150   25.4640 O   0  0  0  0  0  0  0  0  0  0  0  0
   22.1550   13.6720   24.0660 O   0  0  0  0  0  0  0  0  0  0  0  0
   20.8590   10.1210   26.4100 N   0  3  0  0  0  0  0  0  0  0  0  0
   21.5550    9.6420   26.9980 H   0  0  0  0  0  0  0  0  0  0  0  0
   20.4210    9.3630   25.8560 H   0  0  0  0  0  0  0  0  0  0  0  0
   19.8160   10.7470   27.2840 C   0  0  0  0  0  0  0  0  0  0  0  0
   20.3370   11.4310   27.9620 H   0  0  0  0  0  0  0  0  0  0  0  0
   19.4050    9.9370   27.8970 H   0  0  0  0  0  0  0  0  0  0  0  0
   18.7110   11.4330   26.5360 C   0  0  0  0  0  0  0  0  0  0  0  0
   17.7980   10.6900   25.7810 C   0  0  0  0  0  0  0  0  0  0  0  0
   17.8860    9.6050   25.7730 H   0  0  0  0  0  0  0  0  0  0  0  0
   16.7780   11.2970   25.0330 C   0  0  0  0  0  0  0  0  0  0  0  0
   16.7120   12.6910   25.0650 C   0  0  0  0  0  0  0  0  0  0  0  0
   15.9570   13.2370   24.5040 H   0  0  0  0  0  0  0  0  0  0  0  0
   17.6090   13.4430   25.8150 C   0  0  0  0  0  0  0  0  0  0  0  0
   17.5300   14.5280   25.8200 H   0  0  0  0  0  0  0  0  0  0  0  0
   18.6030   12.8190   26.5500 C   0  0  0  0  0  0  0  0  0  0  0  0
   19.2920   13.4340   27.1240 H   0  0  0  0  0  0  0  0  0  0  0  0
   15.8100   10.4420   24.2140 C   0  0  0  0  0  0  0  0  0  0  0  0
   15.1580    9.3750   25.1050 C   0  0  0  0  0  0  0  0  0  0  0  0
   14.6420    9.8320   25.9590 H   0  0  0  0  0  0  0  0  0  0  0  0
   15.8830    8.6580   25.5070 H   0  0  0  0  0  0  0  0  0  0  0  0
   14.4170    8.7890   24.5480 H   0  0  0  0  0  0  0  0  0  0  0  0
   14.6670   11.2380   23.5680 C   0  0  0  0  0  0  0  0  0  0  0  0
   14.0670   11.7660   24.3180 H   0  0  0  0  0  0  0  0  0  0  0  0
   13.9850   10.5800   23.0150 H   0  0  0  0  0  0  0  0  0  0  0  0
   15.0400   11.9780   22.8500 H   0  0  0  0  0  0  0  0  0  0  0  0
   16.5820    9.7500   23.0840 C   0  0  0  0  0  0  0  0  0  0  0  0
   17.3630    9.0810   23.4640 H   0  0  0  0  0  0  0  0  0  0  0  0
   17.0710   10.4820   22.4300 H   0  0  0  0  0  0  0  0  0  0  0  0
   15.9160    9.1420   22.4600 H   0  0  0  0  0  0  0  0  0  0  0  0
   21.2300    9.1970   23.8620 O   0  0  0  0  0  0  0  0  0  0  0  0
   20.6850    9.6530   23.1910 H   0  0  0  0  0  0  0  0  0  0  0  0
   23.3050   12.9240   18.3040 F   0  0  0  0  0  0  0  0  0  0  0  0
   26.0590   13.0040   18.0320 N   0  0  0  0  0  0  0  0  0  0  0  0
   25.5010   13.5600   17.3970 H   0  0  0  0  0  0  0  0  0  0  0  0
   27.0680   12.9980   17.9570 H   0  0  0  0  0  0  0  0  0  0  0  0
   29.3300   12.6200   20.8740 C   0  0  0  0  0  0  0  0  0  0  0  0
   30.1220   12.6520   19.7870 F   0  0  0  0  0  0  0  0  0  0  0  0
   30.1220   12.6120   21.9650 F   0  0  0  0  0  0  0  0  0  0  0  0
   28.6340   13.7810   20.9050 F   0  0  0  0  0  0  0  0  0  0  0  0
  1  2  1  0  0  0  0
  1  3  1  0  0  0  0
  1  4  1  0  0  0  0
  1  5  1  0  0  0  0
  5  6  1  0  0  0  0
  5  7  1  0  0  0  0
  5 69  1  0  0  0  0
  7  8  1  0  0  0  0
  8  9  1  0  0  0  0
  8 14  2  0  0  0  0
  9 10  2  0  0  0  0
  9 66  1  0  0  0  0
 10 11  1  0  0  0  0
 10 65  1  0  0  0  0
 11 12  1  0  0  0  0
 11 13  2  0  0  0  0
 13 14  1  0  0  0  0
 13 16  1  0  0  0  0
 14 15  1  0  0  0  0
 16 17  1  0  0  0  0
 16 18  1  0  0  0  0
 16 19  1  0  0  0  0
 19 20  1  0  0  0  0
 19 21  1  0  0  0  0
 19 29  1  0  0  0  0
 21 22  1  0  0  0  0
 21 23  1  0  0  0  0
 21 63  1  0  0  0  0
 23 24  1  0  0  0  0
 23 25  1  0  0  0  0
 23 34  1  0  0  0  0
 25 26  1  0  0  0  0
 25 27  1  0  0  0  0
 25 28  1  0  0  0  0
 28 29  1  0  0  0  0
 28 32  2  0  0  0  0
 28 33  2  0  0  0  0
 29 30  1  0  0  0  0
 29 31  1  0  0  0  0
 34 35  1  0  0  0  0
 34 36  1  0  0  0  0
 34 37  1  0  0  0  0
 37 38  1  0  0  0  0
 37 39  1  0  0  0  0
 37 40  1  0  0  0  0
 40 41  1  0  0  0  0
 40 48  2  0  0  0  0
 41 42  1  0  0  0  0
 41 43  2  0  0  0  0
 43 44  1  0  0  0  0
 43 50  1  0  0  0  0
 44 45  1  0  0  0  0
 44 46  2  0  0  0  0
 46 47  1  0  0  0  0
 46 48  1  0  0  0  0
 48 49  1  0  0  0  0
 50 51  1  0  0  0  0
 50 55  1  0  0  0  0
 50 59  1  0  0  0  0
 51 52  1  0  0  0  0
 51 53  1  0  0  0  0
 51 54  1  0  0  0  0
 55 56  1  0  0  0  0
 55 57  1  0  0  0  0
 55 58  1  0  0  0  0
 59 60  1  0  0  0  0
 59 61  1  0  0  0  0
 59 62  1  0  0  0  0
 63 64  1  0  0  0  0
 66 67  1  0  0  0  0
 66 68  1  0  0  0  0
 69 70  1  0  0  0  0
 69 71  1  0  0  0  0
 69 72  1  0  0  0  0
M  CHG  1  34   1
M  END
>  <PARENT_CMPD_ID>
22380629_60j

>  <STANDARD_TYPE>
IC50

>  <RELATION>
=

>  <STANDARD_VALUE>
2

>  <STANDARD_UNITS>
nM

>  <COMPOUND_KEY>
60j

>  <PUBMED_ID>
22380629

>  <JOURNAL>
J.Med.Chem.

>  <YEAR>
2012

>  <VOLUME>
55

>  <FIRST_PAGE>
3364

>  <Company>
Novartis

>  <idx>
290

>  <Model>
Valid

>  <target>
8.6989698

>  <des_pred_mlr>
7.8298302

>  <RF_Canvas>
7.8805227

>  <DNN_Canvas>
8.0118437

>  <pred_CoMFA>
7.9755001

>  <pred_COMSIA>
7.3453002

>  <pred_abm5>
7.8739824

>  <pred_ff8>
7.8158402

>  <pred_gau6>
7.8099499

>  <CID>
BACE_290

>  <active>
1

>  <des_class_bayes>
0

>  <maacs_class_bayes>
1

>  <radial_class_bayes>
1

>  <dend_class_bayes>
1

>  <molprint_class_bayes>
1

>  <RF_canvas>
1

>  <DNN_canvas>
1

$$$$
22380629_60p
  MOE2015           3D
HYDROLASE/HYDROLASE INHIBITOR
 76 78  0  0  1  0  0  0  0  0999 V2000
   29.9940   10.2630   19.6780 F   0  0  0  0  0  0  0  0  0  0  0  0
   29.2610   10.2780   20.8040 C   0  0  0  0  0  0  0  0  0  0  0  0
   28.4860    9.1790   20.8040 F   0  0  0  0  0  0  0  0  0  0  0  0
   30.1110   10.1600   21.8390 F   0  0  0  0  0  0  0  0  0  0  0  0
   28.4240   11.5380   20.9150 C   0  0  2  0  0  0  0  0  0  0  0  0
   27.8510   11.5340   21.8490 H   0  0  0  0  0  0  0  0  0  0  0  0
   27.5840   11.6070   19.7530 O   0  0  0  0  0  0  0  0  0  0  0  0
   26.2270   11.5180   19.9260 C   0  0  0  0  0  0  0  0  0  0  0  0
   25.4530   12.2420   19.0120 C   0  0  0  0  0  0  0  0  0  0  0  0
   24.0670   12.1910   19.1380 C   0  0  0  0  0  0  0  0  0  0  0  0
   23.4480   11.4390   20.1270 C   0  0  0  0  0  0  0  0  0  0  0  0
   22.3630   11.4460   20.1840 H   0  0  0  0  0  0  0  0  0  0  0  0
   24.2130   10.7010   21.0270 C   0  0  0  0  0  0  0  0  0  0  0  0
   25.6070   10.7290   20.9010 C   0  0  0  0  0  0  0  0  0  0  0  0
   26.2050   10.1230   21.5750 H   0  0  0  0  0  0  0  0  0  0  0  0
   23.5620    9.9360   22.1550 C   0  0  0  0  0  0  0  0  0  0  0  0
   24.2950    9.2730   22.6320 H   0  0  0  0  0  0  0  0  0  0  0  0
   22.7970    9.2780   21.7240 H   0  0  0  0  0  0  0  0  0  0  0  0
   22.9350   10.8610   23.2160 C   0  0  3  0  0  0  0  0  0  0  0  0
   22.1530   11.4410   22.7060 H   0  0  0  0  0  0  0  0  0  0  0  0
   22.2440   10.0780   24.3620 C   0  0  3  0  0  0  0  0  0  0  0  0
   22.9830    9.4560   24.8820 H   0  0  0  0  0  0  0  0  0  0  0  0
   21.5330   11.0090   25.3760 C   0  0  3  0  0  0  0  0  0  0  0  0
   20.7240   11.5250   24.8470 H   0  0  0  0  0  0  0  0  0  0  0  0
   22.4600   11.9960   26.0530 C   0  0  0  0  0  0  0  0  0  0  0  0
   23.2620   11.4960   26.6060 H   0  0  0  0  0  0  0  0  0  0  0  0
   21.9260   12.6580   26.7410 H   0  0  0  0  0  0  0  0  0  0  0  0
   23.2110   13.0350   24.8310 S   0  0  0  0  0  0  0  0  0  0  0  0
   23.9770   11.8270   23.7860 C   0  0  0  0  0  0  0  0  0  0  0  0
   24.4810   12.4080   23.0080 H   0  0  0  0  0  0  0  0  0  0  0  0
   24.7390   11.3060   24.3740 H   0  0  0  0  0  0  0  0  0  0  0  0
   24.2430   13.8170   25.4700 O   0  0  0  0  0  0  0  0  0  0  0  0
   22.1620   13.6710   24.0640 O   0  0  0  0  0  0  0  0  0  0  0  0
   20.8610   10.1200   26.4070 N   0  3  0  0  0  0  0  0  0  0  0  0
   21.5560    9.6370   26.9930 H   0  0  0  0  0  0  0  0  0  0  0  0
   20.4220    9.3650   25.8490 H   0  0  0  0  0  0  0  0  0  0  0  0
   19.8190   10.7460   27.2800 C   0  0  0  0  0  0  0  0  0  0  0  0
   20.3400   11.4290   27.9590 H   0  0  0  0  0  0  0  0  0  0  0  0
   19.4080    9.9350   27.8930 H   0  0  0  0  0  0  0  0  0  0  0  0
   18.7140   11.4320   26.5340 C   0  0  0  0  0  0  0  0  0  0  0  0
   17.8000   10.6900   25.7790 C   0  0  0  0  0  0  0  0  0  0  0  0
   17.8880    9.6050   25.7700 H   0  0  0  0  0  0  0  0  0  0  0  0
   16.7790   11.2980   25.0330 C   0  0  0  0  0  0  0  0  0  0  0  0
   16.7120   12.6920   25.0670 C   0  0  0  0  0  0  0  0  0  0  0  0
   15.9570   13.2380   24.5080 H   0  0  0  0  0  0  0  0  0  0  0  0
   17.6100   13.4430   25.8170 C   0  0  0  0  0  0  0  0  0  0  0  0
   17.5310   14.5280   25.8240 H   0  0  0  0  0  0  0  0  0  0  0  0
   18.6050   12.8180   26.5500 C   0  0  0  0  0  0  0  0  0  0  0  0
   19.2950   13.4330   27.1240 H   0  0  0  0  0  0  0  0  0  0  0  0
   15.8100   10.4430   24.2140 C   0  0  0  0  0  0  0  0  0  0  0  0
   15.1580    9.3770   25.1060 C   0  0  0  0  0  0  0  0  0  0  0  0
   14.6420    9.8340   25.9590 H   0  0  0  0  0  0  0  0  0  0  0  0
   15.8820    8.6600   25.5070 H   0  0  0  0  0  0  0  0  0  0  0  0
   14.4170    8.7910   24.5480 H   0  0  0  0  0  0  0  0  0  0  0  0
   14.6670   11.2400   23.5680 C   0  0  0  0  0  0  0  0  0  0  0  0
   14.0680   11.7690   24.3190 H   0  0  0  0  0  0  0  0  0  0  0  0
   13.9850   10.5830   23.0160 H   0  0  0  0  0  0  0  0  0  0  0  0
   15.0400   11.9800   22.8510 H   0  0  0  0  0  0  0  0  0  0  0  0
   16.5810    9.7510   23.0840 C   0  0  0  0  0  0  0  0  0  0  0  0
   17.3620    9.0810   23.4630 H   0  0  0  0  0  0  0  0  0  0  0  0
   17.0710   10.4820   22.4300 H   0  0  0  0  0  0  0  0  0  0  0  0
   15.9140    9.1430   22.4600 H   0  0  0  0  0  0  0  0  0  0  0  0
   21.2330    9.1960   23.8620 O   0  0  0  0  0  0  0  0  0  0  0  0
   20.7300    9.6380   23.1500 H   0  0  0  0  0  0  0  0  0  0  0  0
   23.3060   12.8900   18.2890 F   0  0  0  0  0  0  0  0  0  0  0  0
   26.0560   12.9920   18.0100 N   0  0  0  0  0  0  0  0  0  0  0  0
   25.4920   13.5350   17.3700 H   0  0  0  0  0  0  0  0  0  0  0  0
   27.0650   12.9770   17.9260 H   0  0  0  0  0  0  0  0  0  0  0  0
   29.3430   12.7650   20.9210 C   0  0  0  0  0  0  0  0  0  0  0  0
   29.7030   13.0120   19.9140 H   0  0  0  0  0  0  0  0  0  0  0  0
   30.2170   12.5740   21.5520 H   0  0  0  0  0  0  0  0  0  0  0  0
   28.6830   13.8860   21.5180 O   0  0  0  0  0  0  0  0  0  0  0  0
   28.1940   14.8270   20.5790 C   0  0  0  0  0  0  0  0  0  0  0  0
   27.4500   14.3740   19.9240 H   0  0  0  0  0  0  0  0  0  0  0  0
   29.0160   15.2400   19.9870 H   0  0  0  0  0  0  0  0  0  0  0  0
   27.7180   15.6440   21.1270 H   0  0  0  0  0  0  0  0  0  0  0  0
  1  2  1  0  0  0  0
  2  3  1  0  0  0  0
  2  4  1  0  0  0  0
  2  5  1  0  0  0  0
  5  6  1  0  0  0  0
  5  7  1  0  0  0  0
  5 69  1  0  0  0  0
  7  8  1  0  0  0  0
  8  9  2  0  0  0  0
  8 14  1  0  0  0  0
  9 10  1  0  0  0  0
  9 66  1  0  0  0  0
 10 11  2  0  0  0  0
 10 65  1  0  0  0  0
 11 12  1  0  0  0  0
 11 13  1  0  0  0  0
 13 14  2  0  0  0  0
 13 16  1  0  0  0  0
 14 15  1  0  0  0  0
 16 17  1  0  0  0  0
 16 18  1  0  0  0  0
 16 19  1  0  0  0  0
 19 20  1  0  0  0  0
 19 21  1  0  0  0  0
 19 29  1  0  0  0  0
 21 22  1  0  0  0  0
 21 23  1  0  0  0  0
 21 63  1  0  0  0  0
 23 24  1  0  0  0  0
 23 25  1  0  0  0  0
 23 34  1  0  0  0  0
 25 26  1  0  0  0  0
 25 27  1  0  0  0  0
 25 28  1  0  0  0  0
 28 29  1  0  0  0  0
 28 32  2  0  0  0  0
 28 33  2  0  0  0  0
 29 30  1  0  0  0  0
 29 31  1  0  0  0  0
 34 35  1  0  0  0  0
 34 36  1  0  0  0  0
 34 37  1  0  0  0  0
 37 38  1  0  0  0  0
 37 39  1  0  0  0  0
 37 40  1  0  0  0  0
 40 41  2  0  0  0  0
 40 48  1  0  0  0  0
 41 42  1  0  0  0  0
 41 43  1  0  0  0  0
 43 44  2  0  0  0  0
 43 50  1  0  0  0  0
 44 45  1  0  0  0  0
 44 46  1  0  0  0  0
 46 47  1  0  0  0  0
 46 48  2  0  0  0  0
 48 49  1  0  0  0  0
 50 51  1  0  0  0  0
 50 55  1  0  0  0  0
 50 59  1  0  0  0  0
 51 52  1  0  0  0  0
 51 53  1  0  0  0  0
 51 54  1  0  0  0  0
 55 56  1  0  0  0  0
 55 57  1  0  0  0  0
 55 58  1  0  0  0  0
 59 60  1  0  0  0  0
 59 61  1  0  0  0  0
 59 62  1  0  0  0  0
 63 64  1  0  0  0  0
 66 67  1  0  0  0  0
 66 68  1  0  0  0  0
 69 70  1  0  0  0  0
 69 71  1  0  0  0  0
 69 72  1  0  0  0  0
 72 73  1  0  0  0  0
 73 74  1  0  0  0  0
 73 75  1  0  0  0  0
 73 76  1  0  0  0  0
M  CHG  1  34   1
M  END
>  <PARENT_CMPD_ID>
22380629_60p

>  <STANDARD_TYPE>
IC50

>  <RELATION>
=

>  <STANDARD_VALUE>
2

>  <STANDARD_UNITS>
nM

>  <COMPOUND_KEY>
60p

>  <PUBMED_ID>
22380629

>  <JOURNAL>
J.Med.Chem.

>  <YEAR>
2012

>  <VOLUME>
55

>  <FIRST_PAGE>
3364

>  <Company>
Novartis

>  <idx>
291

>  <Model>
Valid

>  <target>
8.6989698

>  <des_pred_mlr>
7.37675

>  <RF_Canvas>
8.0122108

>  <DNN_Canvas>
7.8541512

>  <pred_CoMFA>
7.9837999

>  <pred_COMSIA>
7.5608001

>  <pred_abm5>
8.0842457

>  <pred_ff8>
7.9259572

>  <pred_gau6>
7.8370123

>  <CID>
BACE_291

>  <active>
1

>  <des_class_bayes>
0

>  <maacs_class_bayes>
1

>  <radial_class_bayes>
1

>  <dend_class_bayes>
1

>  <molprint_class_bayes>
1

>  <RF_canvas>
1

>  <DNN_canvas>
1

$$$$
22380629_62d
  MOE2015           3D
HYDROLASE/HYDROLASE INHIBITOR
 70 72  0  0  1  0  0  0  0  0999 V2000
   29.9590   10.1350   19.6720 F   0  0  0  0  0  0  0  0  0  0  0  0
   29.2360   10.1980   20.7990 C   0  0  0  0  0  0  0  0  0  0  0  0
   28.4520    9.1030   20.8370 F   0  0  0  0  0  0  0  0  0  0  0  0
   30.0850   10.1000   21.8350 F   0  0  0  0  0  0  0  0  0  0  0  0
   28.3970   11.4420   20.8760 C   0  0  0  0  0  0  0  0  0  0  0  0
   27.8310   11.4660   21.8140 H   0  0  0  0  0  0  0  0  0  0  0  0
   27.5600   11.5210   19.7170 O   0  0  0  0  0  0  0  0  0  0  0  0
   26.2050   11.4760   19.9070 C   0  0  0  0  0  0  0  0  0  0  0  0
   25.4450   12.2350   19.0120 C   0  0  0  0  0  0  0  0  0  0  0  0
   24.0590   12.2040   19.1420 C   0  0  0  0  0  0  0  0  0  0  0  0
   23.4310   11.4540   20.1280 C   0  0  0  0  0  0  0  0  0  0  0  0
   22.3470   11.4810   20.1890 H   0  0  0  0  0  0  0  0  0  0  0  0
   24.1850   10.6950   21.0180 C   0  0  0  0  0  0  0  0  0  0  0  0
   25.5760   10.6900   20.8790 C   0  0  0  0  0  0  0  0  0  0  0  0
   26.1650   10.0570   21.5370 H   0  0  0  0  0  0  0  0  0  0  0  0
   23.5290    9.9340   22.1460 C   0  0  0  0  0  0  0  0  0  0  0  0
   24.2570    9.2640   22.6210 H   0  0  0  0  0  0  0  0  0  0  0  0
   22.7590    9.2830   21.7140 H   0  0  0  0  0  0  0  0  0  0  0  0
   22.9100   10.8600   23.2100 C   0  0  3  0  0  0  0  0  0  0  0  0
   22.1250   11.4390   22.7050 H   0  0  0  0  0  0  0  0  0  0  0  0
   22.2280   10.0760   24.3580 C   0  0  3  0  0  0  0  0  0  0  0  0
   22.9720    9.4580   24.8760 H   0  0  0  0  0  0  0  0  0  0  0  0
   21.5130   11.0020   25.3750 C   0  0  3  0  0  0  0  0  0  0  0  0
   20.7030   11.5160   24.8470 H   0  0  0  0  0  0  0  0  0  0  0  0
   22.4380   11.9900   26.0520 C   0  0  0  0  0  0  0  0  0  0  0  0
   23.2430   11.4910   26.6020 H   0  0  0  0  0  0  0  0  0  0  0  0
   21.9040   12.6500   26.7420 H   0  0  0  0  0  0  0  0  0  0  0  0
   23.1840   13.0310   24.8270 S   0  0  0  0  0  0  0  0  0  0  0  0
   23.9520   11.8270   23.7770 C   0  0  0  0  0  0  0  0  0  0  0  0
   24.4520   12.4090   22.9980 H   0  0  0  0  0  0  0  0  0  0  0  0
   24.7170   11.3070   24.3620 H   0  0  0  0  0  0  0  0  0  0  0  0
   24.2180   13.8130   25.4640 O   0  0  0  0  0  0  0  0  0  0  0  0
   22.1330   13.6660   24.0640 O   0  0  0  0  0  0  0  0  0  0  0  0
   20.8460   10.1060   26.4030 N   0  3  0  0  0  0  0  0  0  0  0  0
   21.5440    9.6300   26.9910 H   0  0  0  0  0  0  0  0  0  0  0  0
   20.4160    9.3470   25.8440 H   0  0  0  0  0  0  0  0  0  0  0  0
   19.7940   10.7190   27.2750 C   0  0  0  0  0  0  0  0  0  0  0  0
   20.3120   11.3840   27.9740 H   0  0  0  0  0  0  0  0  0  0  0  0
   19.3700    9.8990   27.8650 H   0  0  0  0  0  0  0  0  0  0  0  0
   18.7030   11.4310   26.5300 C   0  0  0  0  0  0  0  0  0  0  0  0
   17.7860   10.7210   25.7480 C   0  0  0  0  0  0  0  0  0  0  0  0
   17.8460    9.6340   25.7140 H   0  0  0  0  0  0  0  0  0  0  0  0
   16.7950   11.3740   25.0020 C   0  0  0  0  0  0  0  0  0  0  0  0
   16.7460   12.7670   25.0710 C   0  0  0  0  0  0  0  0  0  0  0  0
   15.9960   13.3200   24.5070 H   0  0  0  0  0  0  0  0  0  0  0  0
   17.6430   13.4840   25.8500 C   0  0  0  0  0  0  0  0  0  0  0  0
   17.5810   14.5690   25.8840 H   0  0  0  0  0  0  0  0  0  0  0  0
   18.6170   12.8200   26.5770 C   0  0  0  0  0  0  0  0  0  0  0  0
   19.3100   13.4090   27.1750 H   0  0  0  0  0  0  0  0  0  0  0  0
   15.8150   10.5940   24.1400 C   0  0  0  0  0  0  0  0  0  0  0  0
   15.0060    9.6160   24.9860 C   0  0  0  0  0  0  0  0  0  0  0  0
   14.4600   10.1440   25.7770 H   0  0  0  0  0  0  0  0  0  0  0  0
   15.6270    8.8480   25.4580 H   0  0  0  0  0  0  0  0  0  0  0  0
   14.2480    9.1060   24.3790 H   0  0  0  0  0  0  0  0  0  0  0  0
   14.8940   11.4920   23.5120 O   0  0  0  0  0  0  0  0  0  0  0  0
   14.2210   10.9670   23.0450 H   0  0  0  0  0  0  0  0  0  0  0  0
   16.5410    9.8490   23.0250 C   0  0  0  0  0  0  0  0  0  0  0  0
   17.2400    9.0970   23.4070 H   0  0  0  0  0  0  0  0  0  0  0  0
   17.1080   10.5450   22.3940 H   0  0  0  0  0  0  0  0  0  0  0  0
   15.8300    9.3430   22.3620 H   0  0  0  0  0  0  0  0  0  0  0  0
   21.2240    9.1900   23.8580 O   0  0  0  0  0  0  0  0  0  0  0  0
   20.6870    9.6410   23.1770 H   0  0  0  0  0  0  0  0  0  0  0  0
   23.3060   12.9240   18.3030 F   0  0  0  0  0  0  0  0  0  0  0  0
   26.0590   13.0040   18.0330 N   0  0  0  0  0  0  0  0  0  0  0  0
   25.5020   13.5600   17.3970 H   0  0  0  0  0  0  0  0  0  0  0  0
   27.0690   12.9980   17.9580 H   0  0  0  0  0  0  0  0  0  0  0  0
   29.3290   12.6200   20.8750 C   0  0  0  0  0  0  0  0  0  0  0  0
   30.1190   12.6520   19.7870 F   0  0  0  0  0  0  0  0  0  0  0  0
   30.1230   12.6100   21.9640 F   0  0  0  0  0  0  0  0  0  0  0  0
   28.6330   13.7810   20.9080 F   0  0  0  0  0  0  0  0  0  0  0  0
  1  2  1  0  0  0  0
  2  3  1  0  0  0  0
  2  4  1  0  0  0  0
  2  5  1  0  0  0  0
  5  6  1  0  0  0  0
  5  7  1  0  0  0  0
  5 67  1  0  0  0  0
  7  8  1  0  0  0  0
  8  9  1  0  0  0  0
  8 14  2  0  0  0  0
  9 10  2  0  0  0  0
  9 64  1  0  0  0  0
 10 11  1  0  0  0  0
 10 63  1  0  0  0  0
 11 12  1  0  0  0  0
 11 13  2  0  0  0  0
 13 14  1  0  0  0  0
 13 16  1  0  0  0  0
 14 15  1  0  0  0  0
 16 17  1  0  0  0  0
 16 18  1  0  0  0  0
 16 19  1  0  0  0  0
 19 20  1  0  0  0  0
 19 21  1  0  0  0  0
 19 29  1  0  0  0  0
 21 22  1  0  0  0  0
 21 23  1  0  0  0  0
 21 61  1  0  0  0  0
 23 24  1  0  0  0  0
 23 25  1  0  0  0  0
 23 34  1  0  0  0  0
 25 26  1  0  0  0  0
 25 27  1  0  0  0  0
 25 28  1  0  0  0  0
 28 29  1  0  0  0  0
 28 32  2  0  0  0  0
 28 33  2  0  0  0  0
 29 30  1  0  0  0  0
 29 31  1  0  0  0  0
 34 35  1  0  0  0  0
 34 36  1  0  0  0  0
 34 37  1  0  0  0  0
 37 38  1  0  0  0  0
 37 39  1  0  0  0  0
 37 40  1  0  0  0  0
 40 41  1  0  0  0  0
 40 48  2  0  0  0  0
 41 42  1  0  0  0  0
 41 43  2  0  0  0  0
 43 44  1  0  0  0  0
 43 50  1  0  0  0  0
 44 45  1  0  0  0  0
 44 46  2  0  0  0  0
 46 47  1  0  0  0  0
 46 48  1  0  0  0  0
 48 49  1  0  0  0  0
 50 51  1  0  0  0  0
 50 55  1  0  0  0  0
 50 57  1  0  0  0  0
 51 52  1  0  0  0  0
 51 53  1  0  0  0  0
 51 54  1  0  0  0  0
 55 56  1  0  0  0  0
 57 58  1  0  0  0  0
 57 59  1  0  0  0  0
 57 60  1  0  0  0  0
 61 62  1  0  0  0  0
 64 65  1  0  0  0  0
 64 66  1  0  0  0  0
 67 68  1  0  0  0  0
 67 69  1  0  0  0  0
 67 70  1  0  0  0  0
M  CHG  1  34   1
M  END
>  <PARENT_CMPD_ID>
22380629_62d

>  <STANDARD_TYPE>
IC50

>  <RELATION>
=

>  <STANDARD_VALUE>
2

>  <STANDARD_UNITS>
nM

>  <COMPOUND_KEY>
62d

>  <PUBMED_ID>
22380629

>  <JOURNAL>
J.Med.Chem.

>  <YEAR>
2012

>  <VOLUME>
55

>  <FIRST_PAGE>
3364

>  <Company>
Novartis

>  <idx>
292

>  <Model>
Valid

>  <target>
8.6989698

>  <des_pred_mlr>
7.7737002

>  <RF_Canvas>
7.6344309

>  <DNN_Canvas>
8.0981045

>  <pred_CoMFA>
7.7672

>  <pred_COMSIA>
7.2122998

>  <pred_abm5>
7.693151

>  <pred_ff8>
7.715178

>  <pred_gau6>
7.8758421

>  <CID>
BACE_292

>  <active>
1

>  <des_class_bayes>
0

>  <maacs_class_bayes>
1

>  <radial_class_bayes>
1

>  <dend_class_bayes>
1

>  <molprint_class_bayes>
1

>  <RF_canvas>
1

>  <DNN_canvas>
1

$$$$
22380629_62e
  MOE2015           3D
HYDROLASE/HYDROLASE INHIBITOR
 73 75  0  0  1  0  0  0  0  0999 V2000
   29.9590   10.1350   19.6700 F   0  0  0  0  0  0  0  0  0  0  0  0
   29.2370   10.1990   20.7980 C   0  0  0  0  0  0  0  0  0  0  0  0
   28.4530    9.1040   20.8360 F   0  0  0  0  0  0  0  0  0  0  0  0
   30.0870   10.1020   21.8330 F   0  0  0  0  0  0  0  0  0  0  0  0
   28.3980   11.4430   20.8740 C   0  0  0  0  0  0  0  0  0  0  0  0
   27.8320   11.4670   21.8120 H   0  0  0  0  0  0  0  0  0  0  0  0
   27.5610   11.5220   19.7150 O   0  0  0  0  0  0  0  0  0  0  0  0
   26.2060   11.4760   19.9050 C   0  0  0  0  0  0  0  0  0  0  0  0
   25.4450   12.2350   19.0110 C   0  0  0  0  0  0  0  0  0  0  0  0
   24.0590   12.2040   19.1420 C   0  0  0  0  0  0  0  0  0  0  0  0
   23.4310   11.4540   20.1290 C   0  0  0  0  0  0  0  0  0  0  0  0
   22.3470   11.4810   20.1930 H   0  0  0  0  0  0  0  0  0  0  0  0
   24.1880   10.6950   21.0190 C   0  0  0  0  0  0  0  0  0  0  0  0
   25.5790   10.6900   20.8770 C   0  0  0  0  0  0  0  0  0  0  0  0
   26.1680   10.0560   21.5350 H   0  0  0  0  0  0  0  0  0  0  0  0
   23.5340    9.9360   22.1480 C   0  0  0  0  0  0  0  0  0  0  0  0
   24.2620    9.2640   22.6220 H   0  0  0  0  0  0  0  0  0  0  0  0
   22.7620    9.2850   21.7180 H   0  0  0  0  0  0  0  0  0  0  0  0
   22.9200   10.8630   23.2130 C   0  0  3  0  0  0  0  0  0  0  0  0
   22.1380   11.4480   22.7080 H   0  0  0  0  0  0  0  0  0  0  0  0
   22.2320   10.0810   24.3600 C   0  0  3  0  0  0  0  0  0  0  0  0
   22.9730    9.4610   24.8790 H   0  0  0  0  0  0  0  0  0  0  0  0
   21.5210   11.0120   25.3750 C   0  0  3  0  0  0  0  0  0  0  0  0
   20.7140   11.5300   24.8450 H   0  0  0  0  0  0  0  0  0  0  0  0
   22.4510   11.9950   26.0540 C   0  0  0  0  0  0  0  0  0  0  0  0
   23.2510   11.4920   26.6060 H   0  0  0  0  0  0  0  0  0  0  0  0
   21.9180   12.6590   26.7410 H   0  0  0  0  0  0  0  0  0  0  0  0
   23.2070   13.0330   24.8310 S   0  0  0  0  0  0  0  0  0  0  0  0
   23.9680   11.8240   23.7820 C   0  0  0  0  0  0  0  0  0  0  0  0
   24.4730   12.4030   23.0030 H   0  0  0  0  0  0  0  0  0  0  0  0
   24.7290   11.2980   24.3680 H   0  0  0  0  0  0  0  0  0  0  0  0
   24.2420   13.8120   25.4700 O   0  0  0  0  0  0  0  0  0  0  0  0
   22.1590   13.6730   24.0660 O   0  0  0  0  0  0  0  0  0  0  0  0
   20.8470   10.1210   26.4010 N   0  3  0  0  0  0  0  0  0  0  0  0
   21.5390    9.6410   26.9920 H   0  0  0  0  0  0  0  0  0  0  0  0
   20.4140    9.3630   25.8430 H   0  0  0  0  0  0  0  0  0  0  0  0
   19.7960   10.7410   27.2690 C   0  0  0  0  0  0  0  0  0  0  0  0
   20.3120   11.4190   27.9560 H   0  0  0  0  0  0  0  0  0  0  0  0
   19.3790    9.9270   27.8730 H   0  0  0  0  0  0  0  0  0  0  0  0
   18.6980   11.4350   26.5190 C   0  0  0  0  0  0  0  0  0  0  0  0
   17.7740   10.7040   25.7620 C   0  0  0  0  0  0  0  0  0  0  0  0
   17.8520    9.6180   25.7520 H   0  0  0  0  0  0  0  0  0  0  0  0
   16.7550   11.3240   25.0220 C   0  0  0  0  0  0  0  0  0  0  0  0
   16.7050   12.7190   25.0610 C   0  0  0  0  0  0  0  0  0  0  0  0
   15.9460   13.2750   24.5160 H   0  0  0  0  0  0  0  0  0  0  0  0
   17.6130   13.4590   25.8110 C   0  0  0  0  0  0  0  0  0  0  0  0
   17.5410   14.5440   25.8230 H   0  0  0  0  0  0  0  0  0  0  0  0
   18.6030   12.8220   26.5390 C   0  0  0  0  0  0  0  0  0  0  0  0
   19.2980   13.4290   27.1150 H   0  0  0  0  0  0  0  0  0  0  0  0
   15.7640   10.4850   24.2040 C   0  0  0  0  0  0  0  0  0  0  0  0
   15.1310    9.4070   25.0980 C   0  0  0  0  0  0  0  0  0  0  0  0
   14.6740    9.8430   25.9940 H   0  0  0  0  0  0  0  0  0  0  0  0
   15.8580    8.6610   25.4370 H   0  0  0  0  0  0  0  0  0  0  0  0
   14.3490    8.8570   24.5610 H   0  0  0  0  0  0  0  0  0  0  0  0
   14.6170   11.2900   23.5350 C   0  0  0  0  0  0  0  0  0  0  0  0
   13.7740   11.9340   24.4830 O   0  0  0  0  0  0  0  0  0  0  0  0
   13.2170   11.2560   24.9000 H   0  0  0  0  0  0  0  0  0  0  0  0
   13.9830   10.6370   22.9210 H   0  0  0  0  0  0  0  0  0  0  0  0
   15.0130   12.0580   22.8610 H   0  0  0  0  0  0  0  0  0  0  0  0
   16.5360    9.7920   23.0700 C   0  0  0  0  0  0  0  0  0  0  0  0
   17.3210    9.1270   23.4460 H   0  0  0  0  0  0  0  0  0  0  0  0
   17.0190   10.5260   22.4130 H   0  0  0  0  0  0  0  0  0  0  0  0
   15.8690    9.1810   22.4500 H   0  0  0  0  0  0  0  0  0  0  0  0
   21.2260    9.1980   23.8590 O   0  0  0  0  0  0  0  0  0  0  0  0
   20.6860    9.6520   23.1820 H   0  0  0  0  0  0  0  0  0  0  0  0
   23.3050   12.9240   18.3040 F   0  0  0  0  0  0  0  0  0  0  0  0
   26.0580   13.0040   18.0320 N   0  0  0  0  0  0  0  0  0  0  0  0
   25.5010   13.5600   17.3970 H   0  0  0  0  0  0  0  0  0  0  0  0
   27.0680   12.9980   17.9560 H   0  0  0  0  0  0  0  0  0  0  0  0
   29.3300   12.6210   20.8730 C   0  0  0  0  0  0  0  0  0  0  0  0
   30.1220   12.6520   19.7860 F   0  0  0  0  0  0  0  0  0  0  0  0
   30.1230   12.6120   21.9630 F   0  0  0  0  0  0  0  0  0  0  0  0
   28.6350   13.7820   20.9040 F   0  0  0  0  0  0  0  0  0  0  0  0
  1  2  1  0  0  0  0
  2  3  1  0  0  0  0
  2  4  1  0  0  0  0
  2  5  1  0  0  0  0
  5  6  1  0  0  0  0
  5  7  1  0  0  0  0
  5 70  1  0  0  0  0
  7  8  1  0  0  0  0
  8  9  1  0  0  0  0
  8 14  2  0  0  0  0
  9 10  2  0  0  0  0
  9 67  1  0  0  0  0
 10 11  1  0  0  0  0
 10 66  1  0  0  0  0
 11 12  1  0  0  0  0
 11 13  2  0  0  0  0
 13 14  1  0  0  0  0
 13 16  1  0  0  0  0
 14 15  1  0  0  0  0
 16 17  1  0  0  0  0
 16 18  1  0  0  0  0
 16 19  1  0  0  0  0
 19 20  1  0  0  0  0
 19 21  1  0  0  0  0
 19 29  1  0  0  0  0
 21 22  1  0  0  0  0
 21 23  1  0  0  0  0
 21 64  1  0  0  0  0
 23 24  1  0  0  0  0
 23 25  1  0  0  0  0
 23 34  1  0  0  0  0
 25 26  1  0  0  0  0
 25 27  1  0  0  0  0
 25 28  1  0  0  0  0
 28 29  1  0  0  0  0
 28 32  2  0  0  0  0
 28 33  2  0  0  0  0
 29 30  1  0  0  0  0
 29 31  1  0  0  0  0
 34 35  1  0  0  0  0
 34 36  1  0  0  0  0
 34 37  1  0  0  0  0
 37 38  1  0  0  0  0
 37 39  1  0  0  0  0
 37 40  1  0  0  0  0
 40 41  1  0  0  0  0
 40 48  2  0  0  0  0
 41 42  1  0  0  0  0
 41 43  2  0  0  0  0
 43 44  1  0  0  0  0
 43 50  1  0  0  0  0
 44 45  1  0  0  0  0
 44 46  2  0  0  0  0
 46 47  1  0  0  0  0
 46 48  1  0  0  0  0
 48 49  1  0  0  0  0
 50 51  1  0  0  0  0
 50 55  1  0  0  0  0
 50 60  1  0  0  0  0
 51 52  1  0  0  0  0
 51 53  1  0  0  0  0
 51 54  1  0  0  0  0
 55 56  1  0  0  0  0
 55 58  1  0  0  0  0
 55 59  1  0  0  0  0
 56 57  1  0  0  0  0
 60 61  1  0  0  0  0
 60 62  1  0  0  0  0
 60 63  1  0  0  0  0
 64 65  1  0  0  0  0
 67 68  1  0  0  0  0
 67 69  1  0  0  0  0
 70 71  1  0  0  0  0
 70 72  1  0  0  0  0
 70 73  1  0  0  0  0
M  CHG  1  34   1
M  END
>  <PARENT_CMPD_ID>
22380629_62e

>  <STANDARD_TYPE>
IC50

>  <RELATION>
=

>  <STANDARD_VALUE>
2

>  <STANDARD_UNITS>
nM

>  <COMPOUND_KEY>
62e

>  <PUBMED_ID>
22380629

>  <JOURNAL>
J.Med.Chem.

>  <YEAR>
2012

>  <VOLUME>
55

>  <FIRST_PAGE>
3364

>  <Company>
Novartis

>  <idx>
293

>  <Model>
Valid

>  <target>
8.6989698

>  <des_pred_mlr>
7.72616

>  <RF_Canvas>
7.7184372

>  <DNN_Canvas>
8.2078924

>  <pred_CoMFA>
7.9815998

>  <pred_COMSIA>
7.3670998

>  <pred_abm5>
7.8858132

>  <pred_ff8>
7.7639618

>  <pred_gau6>
8.022728

>  <CID>
BACE_293

>  <active>
1

>  <des_class_bayes>
0

>  <maacs_class_bayes>
1

>  <radial_class_bayes>
1

>  <dend_class_bayes>
1

>  <molprint_class_bayes>
1

>  <RF_canvas>
1

>  <DNN_canvas>
1

$$$$
mcl886_27
  MOE2015           3D

 78 81  0  0  1  0  0  0  0  0999 V2000
   18.6600   12.1830   29.4730 C   0  0  0  0  0  0  0  0  0  0  0  0
   19.6210   12.6640   30.5560 C   0  0  0  0  0  0  0  0  0  0  0  0
   20.2660   13.5790   29.5200 C   0  0  0  0  0  0  0  0  0  0  0  0
   19.6540   12.7000   28.4050 C   0  0  0  0  0  0  0  0  0  0  0  0
   20.6310   11.7000   27.8130 C   0  0  0  0  0  0  0  0  0  0  0  0
   19.0670   13.4680   27.3430 O   0  0  0  0  0  0  0  0  0  0  0  0
   18.4400   12.7530   26.3580 C   0  0  0  0  0  0  0  0  0  0  0  0
   17.4960   13.4380   25.6970 N   0  0  0  0  0  0  0  0  0  0  0  0
   16.8530   12.7870   24.7150 C   0  0  0  0  0  0  0  0  0  0  0  0
   17.0860   11.4630   24.3750 C   0  0  0  0  0  0  0  0  0  0  0  0
   16.2940   10.8010   23.2890 C   0  0  0  0  0  0  0  0  0  0  0  0
   14.9740   10.1320   23.7190 C   0  0  0  0  0  0  0  0  0  0  0  0
   14.0450   11.1080   24.4410 C   0  0  0  0  0  0  0  0  0  0  0  0
   15.2310    8.9260   24.6230 C   0  0  0  0  0  0  0  0  0  0  0  0
   14.2620    9.6430   22.4540 C   0  0  0  0  0  0  0  0  0  0  0  0
   18.0720   10.7860   25.0840 C   0  0  0  0  0  0  0  0  0  0  0  0
   18.7940   11.4410   26.0810 C   0  0  0  0  0  0  0  0  0  0  0  0
   19.8870   10.7640   26.8550 C   0  0  3  0  0  0  0  0  0  0  0  0
   20.9020   10.0460   25.9970 N   0  3  0  0  0  0  0  0  0  0  0  0
   21.6130   10.8720   24.9580 C   0  0  0  0  0  0  0  0  0  0  0  0
   22.1190    9.9310   23.8640 C   0  0  3  0  0  0  0  0  0  0  0  0
   21.0200    9.1220   23.4330 O   0  0  0  0  0  0  0  0  0  0  0  0
   22.7370   10.7020   22.6850 C   0  0  3  0  0  0  0  0  0  0  0  0
   23.8800   11.4920   23.1250 N   0  0  0  0  0  0  0  0  0  0  0  0
   23.7820   12.8470   23.3450 C   0  0  0  0  0  0  0  0  0  0  0  0
   25.0740   13.4890   23.7540 C   0  0  0  0  0  0  0  0  0  0  0  0
   22.7300   13.4680   23.2510 O   0  0  0  0  0  0  0  0  0  0  0  0
   23.1380    9.7600   21.5310 C   0  0  0  0  0  0  0  0  0  0  0  0
   23.8330   10.4830   20.4090 C   0  0  0  0  0  0  0  0  0  0  0  0
   25.1490   10.1620   20.0720 C   0  0  0  0  0  0  0  0  0  0  0  0
   25.8320   10.8560   19.0760 C   0  0  0  0  0  0  0  0  0  0  0  0
   27.1070   10.4200   18.8580 O   0  0  0  0  0  0  0  0  0  0  0  0
   27.8410   11.0220   17.8050 C   0  0  0  0  0  0  0  0  0  0  0  0
   29.0410   10.4020   17.7150 F   0  0  0  0  0  0  0  0  0  0  0  0
   28.0690   12.3260   18.0600 F   0  0  0  0  0  0  0  0  0  0  0  0
   27.2120   10.8740   16.6210 F   0  0  0  0  0  0  0  0  0  0  0  0
   25.1710   11.8900   18.4300 C   0  0  0  0  0  0  0  0  0  0  0  0
   25.7670   12.6140   17.4840 F   0  0  0  0  0  0  0  0  0  0  0  0
   23.8620   12.2130   18.7390 C   0  0  0  0  0  0  0  0  0  0  0  0
   23.1880   11.5050   19.7190 C   0  0  0  0  0  0  0  0  0  0  0  0
   17.6980   12.7100   29.4770 H   0  0  0  0  0  0  0  0  0  0  0  0
   18.4610   11.1070   29.4790 H   0  0  0  0  0  0  0  0  0  0  0  0
   20.2910   11.8800   30.9270 H   0  0  0  0  0  0  0  0  0  0  0  0
   19.1600   13.1660   31.4100 H   0  0  0  0  0  0  0  0  0  0  0  0
   21.3590   13.6270   29.5600 H   0  0  0  0  0  0  0  0  0  0  0  0
   19.8780   14.6050   29.5400 H   0  0  0  0  0  0  0  0  0  0  0  0
   21.1350   11.1110   28.5890 H   0  0  0  0  0  0  0  0  0  0  0  0
   21.4180   12.2580   27.2910 H   0  0  0  0  0  0  0  0  0  0  0  0
   16.1030   13.3800   24.1980 H   0  0  0  0  0  0  0  0  0  0  0  0
   16.9370   10.0630   22.7880 H   0  0  0  0  0  0  0  0  0  0  0  0
   16.0880   11.5540   22.5150 H   0  0  0  0  0  0  0  0  0  0  0  0
   14.4420   11.4140   25.4140 H   0  0  0  0  0  0  0  0  0  0  0  0
   13.0650   10.6530   24.6310 H   0  0  0  0  0  0  0  0  0  0  0  0
   13.8730   12.0110   23.8430 H   0  0  0  0  0  0  0  0  0  0  0  0
   15.6610    9.2210   25.5860 H   0  0  0  0  0  0  0  0  0  0  0  0
   15.9190    8.2140   24.1520 H   0  0  0  0  0  0  0  0  0  0  0  0
   14.3010    8.3880   24.8410 H   0  0  0  0  0  0  0  0  0  0  0  0
   14.0310   10.4750   21.7780 H   0  0  0  0  0  0  0  0  0  0  0  0
   13.3170    9.1420   22.6930 H   0  0  0  0  0  0  0  0  0  0  0  0
   14.8810    8.9280   21.9000 H   0  0  0  0  0  0  0  0  0  0  0  0
   18.2660    9.7420   24.8490 H   0  0  0  0  0  0  0  0  0  0  0  0
   19.4160    9.9710   27.4500 H   0  0  0  0  0  0  0  0  0  0  0  0
   20.4360    9.2870   25.4720 H   0  0  0  0  0  0  0  0  0  0  0  0
   21.5900    9.5670   26.5940 H   0  0  0  0  0  0  0  0  0  0  0  0
   22.4250   11.4010   25.4640 H   0  0  0  0  0  0  0  0  0  0  0  0
   20.8950   11.5840   24.5440 H   0  0  0  0  0  0  0  0  0  0  0  0
   22.8640    9.2500   24.2950 H   0  0  0  0  0  0  0  0  0  0  0  0
   20.4660    9.6280   22.8090 H   0  0  0  0  0  0  0  0  0  0  0  0
   21.9690   11.3840   22.2960 H   0  0  0  0  0  0  0  0  0  0  0  0
   24.7790   11.0360   23.2530 H   0  0  0  0  0  0  0  0  0  0  0  0
   25.9160   13.0430   23.2170 H   0  0  0  0  0  0  0  0  0  0  0  0
   25.2190   13.3560   24.8290 H   0  0  0  0  0  0  0  0  0  0  0  0
   25.0410   14.5570   23.5200 H   0  0  0  0  0  0  0  0  0  0  0  0
   22.2550    9.2540   21.1220 H   0  0  0  0  0  0  0  0  0  0  0  0
   23.7920    8.9690   21.9210 H   0  0  0  0  0  0  0  0  0  0  0  0
   25.6640    9.3560   20.5930 H   0  0  0  0  0  0  0  0  0  0  0  0
   23.3700   13.0230   18.2090 H   0  0  0  0  0  0  0  0  0  0  0  0
   22.1600   11.7750   19.9490 H   0  0  0  0  0  0  0  0  0  0  0  0
  1  2  1  0  0  0  0
  1  4  1  0  0  0  0
  1 41  1  0  0  0  0
  1 42  1  0  0  0  0
  2  3  1  0  0  0  0
  2 43  1  0  0  0  0
  2 44  1  0  0  0  0
  3  4  1  0  0  0  0
  3 45  1  0  0  0  0
  3 46  1  0  0  0  0
  4  5  1  0  0  0  0
  4  6  1  0  0  0  0
  5 18  1  0  0  0  0
  5 47  1  0  0  0  0
  5 48  1  0  0  0  0
  6  7  1  0  0  0  0
  7  8  1  0  0  0  0
  7 17  2  0  0  0  0
  8  9  2  0  0  0  0
  9 10  1  0  0  0  0
  9 49  1  0  0  0  0
 10 11  1  0  0  0  0
 10 16  2  0  0  0  0
 11 12  1  0  0  0  0
 11 50  1  0  0  0  0
 11 51  1  0  0  0  0
 12 13  1  0  0  0  0
 12 14  1  0  0  0  0
 12 15  1  0  0  0  0
 13 52  1  0  0  0  0
 13 53  1  0  0  0  0
 13 54  1  0  0  0  0
 14 55  1  0  0  0  0
 14 56  1  0  0  0  0
 14 57  1  0  0  0  0
 15 58  1  0  0  0  0
 15 59  1  0  0  0  0
 15 60  1  0  0  0  0
 16 17  1  0  0  0  0
 16 61  1  0  0  0  0
 17 18  1  0  0  0  0
 18 19  1  0  0  0  0
 18 62  1  0  0  0  0
 19 20  1  0  0  0  0
 19 63  1  0  0  0  0
 19 64  1  0  0  0  0
 20 21  1  0  0  0  0
 20 65  1  0  0  0  0
 20 66  1  0  0  0  0
 21 22  1  0  0  0  0
 21 23  1  0  0  0  0
 21 67  1  0  0  0  0
 22 68  1  0  0  0  0
 23 24  1  0  0  0  0
 23 28  1  0  0  0  0
 23 69  1  0  0  0  0
 24 25  1  0  0  0  0
 24 70  1  0  0  0  0
 25 26  1  0  0  0  0
 25 27  2  0  0  0  0
 26 71  1  0  0  0  0
 26 72  1  0  0  0  0
 26 73  1  0  0  0  0
 28 29  1  0  0  0  0
 28 74  1  0  0  0  0
 28 75  1  0  0  0  0
 29 30  1  0  0  0  0
 29 40  2  0  0  0  0
 30 31  2  0  0  0  0
 30 76  1  0  0  0  0
 31 32  1  0  0  0  0
 31 37  1  0  0  0  0
 32 33  1  0  0  0  0
 33 34  1  0  0  0  0
 33 35  1  0  0  0  0
 33 36  1  0  0  0  0
 37 38  1  0  0  0  0
 37 39  2  0  0  0  0
 39 40  1  0  0  0  0
 39 77  1  0  0  0  0
 40 78  1  0  0  0  0
M  CHG  1  19   1
M  END
>  <PARENT_CMPD_ID>
mcl886_27

>  <STANDARD_TYPE>
IC50

>  <RELATION>
=

>  <STANDARD_VALUE>
2.0999999

>  <STANDARD_UNITS>
nM

>  <COMPOUND_KEY>
27

>  <PUBMED_ID>
24900403

>  <JOURNAL>
ACS Med. Chem. Lett.

>  <YEAR>
2012

>  <VOLUME>
3

>  <FIRST_PAGE>
886

>  <Company>
Amgen

>  <idx>
294

>  <Model>
Valid

>  <target>
8.6777811

>  <des_pred_mlr>
7.34481

>  <RF_Canvas>
8.0176201

>  <DNN_Canvas>
7.9222608

>  <pred_CoMFA>
7.8587999

>  <pred_COMSIA>
7.3452001

>  <pred_abm5>
8.0712004

>  <pred_ff8>
6.2042804

>  <pred_gau6>
8.0878401

>  <CID>
BACE_294

>  <active>
1

>  <des_class_bayes>
0

>  <maacs_class_bayes>
1

>  <radial_class_bayes>
1

>  <dend_class_bayes>
1

>  <molprint_class_bayes>
1

>  <RF_canvas>
1

>  <DNN_canvas>
1

$$$$
mcl886_22
  MOE2015           3D

 77 80  0  0  1  0  0  0  0  0999 V2000
   18.6540   12.1870   29.4830 C   0  0  0  0  0  0  0  0  0  0  0  0
   19.6150   12.6670   30.5670 C   0  0  0  0  0  0  0  0  0  0  0  0
   20.2640   13.5800   29.5300 C   0  0  0  0  0  0  0  0  0  0  0  0
   19.6520   12.6990   28.4170 C   0  0  0  0  0  0  0  0  0  0  0  0
   20.6290   11.6950   27.8310 C   0  0  0  0  0  0  0  0  0  0  0  0
   19.0700   13.4650   27.3510 O   0  0  0  0  0  0  0  0  0  0  0  0
   18.4470   12.7500   26.3640 C   0  0  0  0  0  0  0  0  0  0  0  0
   17.5050   13.4360   25.6990 N   0  0  0  0  0  0  0  0  0  0  0  0
   16.8650   12.7840   24.7160 C   0  0  0  0  0  0  0  0  0  0  0  0
   17.0980   11.4600   24.3770 C   0  0  0  0  0  0  0  0  0  0  0  0
   16.3070   10.7980   23.2900 C   0  0  0  0  0  0  0  0  0  0  0  0
   14.9830   10.1330   23.7190 C   0  0  0  0  0  0  0  0  0  0  0  0
   14.0550   11.1120   24.4390 C   0  0  0  0  0  0  0  0  0  0  0  0
   15.2360    8.9270   24.6240 C   0  0  0  0  0  0  0  0  0  0  0  0
   14.2720    9.6450   22.4530 C   0  0  0  0  0  0  0  0  0  0  0  0
   18.0820   10.7830   25.0890 C   0  0  0  0  0  0  0  0  0  0  0  0
   18.8010   11.4370   26.0900 C   0  0  0  0  0  0  0  0  0  0  0  0
   19.8840   10.7570   26.8750 C   0  0  3  0  0  0  0  0  0  0  0  0
   20.9010   10.0250   26.0330 N   0  3  0  0  0  0  0  0  0  0  0  0
   21.6410   10.8380   25.0100 C   0  0  0  0  0  0  0  0  0  0  0  0
   22.1400    9.8910   23.9210 C   0  0  3  0  0  0  0  0  0  0  0  0
   21.0260    9.0990   23.4850 O   0  0  0  0  0  0  0  0  0  0  0  0
   22.7570   10.6650   22.7510 C   0  0  3  0  0  0  0  0  0  0  0  0
   23.8950   11.4730   23.1710 N   0  0  0  0  0  0  0  0  0  0  0  0
   23.7930   12.8310   23.3640 C   0  0  0  0  0  0  0  0  0  0  0  0
   25.0850   13.4830   23.7590 C   0  0  0  0  0  0  0  0  0  0  0  0
   22.7430   13.4520   23.2550 O   0  0  0  0  0  0  0  0  0  0  0  0
   23.1660    9.7450   21.5840 C   0  0  0  0  0  0  0  0  0  0  0  0
   23.4920   10.5770   20.3790 C   0  0  0  0  0  0  0  0  0  0  0  0
   24.7860   10.6860   19.8940 C   0  0  0  0  0  0  0  0  0  0  0  0
   25.0560   11.5770   18.8560 C   0  0  0  0  0  0  0  0  0  0  0  0
   24.0450   12.3610   18.3160 C   0  0  0  0  0  0  0  0  0  0  0  0
   24.2520   13.0730   17.5190 H   0  0  0  0  0  0  0  0  0  0  0  0
   22.7540   12.2290   18.7730 C   0  0  0  0  0  0  0  0  0  0  0  0
   22.4790   11.3310   19.7860 C   0  0  0  0  0  0  0  0  0  0  0  0
   17.6940   12.7180   29.4840 H   0  0  0  0  0  0  0  0  0  0  0  0
   18.4520   11.1120   29.4910 H   0  0  0  0  0  0  0  0  0  0  0  0
   20.2820   11.8830   30.9410 H   0  0  0  0  0  0  0  0  0  0  0  0
   19.1540   13.1720   31.4200 H   0  0  0  0  0  0  0  0  0  0  0  0
   21.3560   13.6260   29.5730 H   0  0  0  0  0  0  0  0  0  0  0  0
   19.8760   14.6060   29.5470 H   0  0  0  0  0  0  0  0  0  0  0  0
   21.1300   11.1080   28.6110 H   0  0  0  0  0  0  0  0  0  0  0  0
   21.4170   12.2500   27.3080 H   0  0  0  0  0  0  0  0  0  0  0  0
   16.1170   13.3780   24.1950 H   0  0  0  0  0  0  0  0  0  0  0  0
   16.9490   10.0570   22.7920 H   0  0  0  0  0  0  0  0  0  0  0  0
   16.1040   11.5510   22.5150 H   0  0  0  0  0  0  0  0  0  0  0  0
   14.4520   11.4170   25.4130 H   0  0  0  0  0  0  0  0  0  0  0  0
   13.0740   10.6590   24.6280 H   0  0  0  0  0  0  0  0  0  0  0  0
   13.8860   12.0150   23.8410 H   0  0  0  0  0  0  0  0  0  0  0  0
   15.6660    9.2210   25.5870 H   0  0  0  0  0  0  0  0  0  0  0  0
   15.9230    8.2130   24.1540 H   0  0  0  0  0  0  0  0  0  0  0  0
   14.3050    8.3910   24.8400 H   0  0  0  0  0  0  0  0  0  0  0  0
   14.0440   10.4770   21.7770 H   0  0  0  0  0  0  0  0  0  0  0  0
   13.3250    9.1460   22.6910 H   0  0  0  0  0  0  0  0  0  0  0  0
   14.8900    8.9290   21.9000 H   0  0  0  0  0  0  0  0  0  0  0  0
   18.2780    9.7400   24.8520 H   0  0  0  0  0  0  0  0  0  0  0  0
   19.4030    9.9720   27.4730 H   0  0  0  0  0  0  0  0  0  0  0  0
   20.4300    9.2780   25.4920 H   0  0  0  0  0  0  0  0  0  0  0  0
   21.5710    9.5290   26.6360 H   0  0  0  0  0  0  0  0  0  0  0  0
   22.4570   11.3490   25.5260 H   0  0  0  0  0  0  0  0  0  0  0  0
   20.9420   11.5670   24.5910 H   0  0  0  0  0  0  0  0  0  0  0  0
   22.8770    9.2000   24.3480 H   0  0  0  0  0  0  0  0  0  0  0  0
   20.5590    9.5610   22.7630 H   0  0  0  0  0  0  0  0  0  0  0  0
   21.9730   11.3440   22.3900 H   0  0  0  0  0  0  0  0  0  0  0  0
   24.7960   11.0240   23.3100 H   0  0  0  0  0  0  0  0  0  0  0  0
   25.9210   13.0520   23.2010 H   0  0  0  0  0  0  0  0  0  0  0  0
   25.2500   13.3400   24.8300 H   0  0  0  0  0  0  0  0  0  0  0  0
   25.0370   14.5530   23.5380 H   0  0  0  0  0  0  0  0  0  0  0  0
   22.3580    9.0540   21.3150 H   0  0  0  0  0  0  0  0  0  0  0  0
   24.0250    9.1250   21.8700 H   0  0  0  0  0  0  0  0  0  0  0  0
   25.5930   10.1020   20.3320 H   0  0  0  0  0  0  0  0  0  0  0  0
   26.4320   11.7360   18.3340 C   0  0  0  0  0  0  0  0  0  0  0  0
   26.4670   12.3490   17.1240 F   0  0  0  0  0  0  0  0  0  0  0  0
   27.0660   10.5460   18.1840 F   0  0  0  0  0  0  0  0  0  0  0  0
   27.2110   12.4810   19.1570 F   0  0  0  0  0  0  0  0  0  0  0  0
   21.9570   12.8270   18.3400 H   0  0  0  0  0  0  0  0  0  0  0  0
   21.4500   11.2480   20.1320 H   0  0  0  0  0  0  0  0  0  0  0  0
  1  2  1  0  0  0  0
  1  4  1  0  0  0  0
  1 36  1  0  0  0  0
  1 37  1  0  0  0  0
  2  3  1  0  0  0  0
  2 38  1  0  0  0  0
  2 39  1  0  0  0  0
  3  4  1  0  0  0  0
  3 40  1  0  0  0  0
  3 41  1  0  0  0  0
  4  5  1  0  0  0  0
  4  6  1  0  0  0  0
  5 18  1  0  0  0  0
  5 42  1  0  0  0  0
  5 43  1  0  0  0  0
  6  7  1  0  0  0  0
  7  8  1  0  0  0  0
  7 17  2  0  0  0  0
  8  9  2  0  0  0  0
  9 10  1  0  0  0  0
  9 44  1  0  0  0  0
 10 11  1  0  0  0  0
 10 16  2  0  0  0  0
 11 12  1  0  0  0  0
 11 45  1  0  0  0  0
 11 46  1  0  0  0  0
 12 13  1  0  0  0  0
 12 14  1  0  0  0  0
 12 15  1  0  0  0  0
 13 47  1  0  0  0  0
 13 48  1  0  0  0  0
 13 49  1  0  0  0  0
 14 50  1  0  0  0  0
 14 51  1  0  0  0  0
 14 52  1  0  0  0  0
 15 53  1  0  0  0  0
 15 54  1  0  0  0  0
 15 55  1  0  0  0  0
 16 17  1  0  0  0  0
 16 56  1  0  0  0  0
 17 18  1  0  0  0  0
 18 19  1  0  0  0  0
 18 57  1  0  0  0  0
 19 20  1  0  0  0  0
 19 58  1  0  0  0  0
 19 59  1  0  0  0  0
 20 21  1  0  0  0  0
 20 60  1  0  0  0  0
 20 61  1  0  0  0  0
 21 22  1  0  0  0  0
 21 23  1  0  0  0  0
 21 62  1  0  0  0  0
 22 63  1  0  0  0  0
 23 24  1  0  0  0  0
 23 28  1  0  0  0  0
 23 64  1  0  0  0  0
 24 25  1  0  0  0  0
 24 65  1  0  0  0  0
 25 26  1  0  0  0  0
 25 27  2  0  0  0  0
 26 66  1  0  0  0  0
 26 67  1  0  0  0  0
 26 68  1  0  0  0  0
 28 29  1  0  0  0  0
 28 69  1  0  0  0  0
 28 70  1  0  0  0  0
 29 30  1  0  0  0  0
 29 35  2  0  0  0  0
 30 31  2  0  0  0  0
 30 71  1  0  0  0  0
 31 32  1  0  0  0  0
 31 72  1  0  0  0  0
 32 33  1  0  0  0  0
 32 34  2  0  0  0  0
 34 35  1  0  0  0  0
 34 76  1  0  0  0  0
 35 77  1  0  0  0  0
 72 73  1  0  0  0  0
 72 74  1  0  0  0  0
 72 75  1  0  0  0  0
M  CHG  1  19   1
M  END
>  <PARENT_CMPD_ID>
mcl886_22

>  <STANDARD_TYPE>
IC50

>  <RELATION>
=

>  <STANDARD_VALUE>
2.4000001

>  <STANDARD_UNITS>
nM

>  <COMPOUND_KEY>
22

>  <PUBMED_ID>
24900403

>  <JOURNAL>
ACS Med. Chem. Lett.

>  <YEAR>
2012

>  <VOLUME>
3

>  <FIRST_PAGE>
886

>  <Company>
Amgen

>  <idx>
295

>  <Model>
Valid

>  <target>
8.6197891

>  <des_pred_mlr>
7.0376101

>  <RF_Canvas>
7.9236155

>  <DNN_Canvas>
7.9582376

>  <pred_CoMFA>
8.1197996

>  <pred_COMSIA>
7.5858998

>  <pred_abm5>
7.9505777

>  <pred_ff8>
7.3162055

>  <pred_gau6>
8.1569166

>  <CID>
BACE_295

>  <active>
1

>  <des_class_bayes>
0

>  <maacs_class_bayes>
1

>  <radial_class_bayes>
1

>  <dend_class_bayes>
1

>  <molprint_class_bayes>
1

>  <RF_canvas>
1

>  <DNN_canvas>
1

$$$$
mcl886_28
  MOE2015           3D

 75 78  0  0  1  0  0  0  0  0999 V2000
   18.6610   12.1820   29.4720 C   0  0  0  0  0  0  0  0  0  0  0  0
   19.6230   12.6630   30.5540 C   0  0  0  0  0  0  0  0  0  0  0  0
   20.2670   13.5790   29.5180 C   0  0  0  0  0  0  0  0  0  0  0  0
   19.6530   12.7010   28.4030 C   0  0  0  0  0  0  0  0  0  0  0  0
   20.6310   11.7020   27.8090 C   0  0  0  0  0  0  0  0  0  0  0  0
   19.0650   13.4690   27.3420 O   0  0  0  0  0  0  0  0  0  0  0  0
   18.4390   12.7540   26.3570 C   0  0  0  0  0  0  0  0  0  0  0  0
   17.4940   13.4400   25.6970 N   0  0  0  0  0  0  0  0  0  0  0  0
   16.8510   12.7880   24.7140 C   0  0  0  0  0  0  0  0  0  0  0  0
   17.0850   11.4650   24.3730 C   0  0  0  0  0  0  0  0  0  0  0  0
   16.2930   10.8030   23.2870 C   0  0  0  0  0  0  0  0  0  0  0  0
   14.9730   10.1320   23.7180 C   0  0  0  0  0  0  0  0  0  0  0  0
   14.0440   11.1080   24.4400 C   0  0  0  0  0  0  0  0  0  0  0  0
   15.2330    8.9260   24.6210 C   0  0  0  0  0  0  0  0  0  0  0  0
   14.2610    9.6430   22.4530 C   0  0  0  0  0  0  0  0  0  0  0  0
   18.0720   10.7890   25.0800 C   0  0  0  0  0  0  0  0  0  0  0  0
   18.7940   11.4430   26.0790 C   0  0  0  0  0  0  0  0  0  0  0  0
   19.8860   10.7660   26.8520 C   0  0  3  0  0  0  0  0  0  0  0  0
   20.9010   10.0450   25.9960 N   0  3  0  0  0  0  0  0  0  0  0  0
   21.6150   10.8670   24.9580 C   0  0  0  0  0  0  0  0  0  0  0  0
   22.1100    9.9240   23.8640 C   0  0  3  0  0  0  0  0  0  0  0  0
   21.0050    9.1170   23.4440 O   0  0  0  0  0  0  0  0  0  0  0  0
   22.7240   10.6980   22.6850 C   0  0  3  0  0  0  0  0  0  0  0  0
   23.8760   11.4810   23.1220 N   0  0  0  0  0  0  0  0  0  0  0  0
   23.7880   12.8370   23.3360 C   0  0  0  0  0  0  0  0  0  0  0  0
   25.0820   13.4740   23.7450 C   0  0  0  0  0  0  0  0  0  0  0  0
   22.7400   13.4640   23.2370 O   0  0  0  0  0  0  0  0  0  0  0  0
   23.1070    9.7640   21.5210 C   0  0  0  0  0  0  0  0  0  0  0  0
   23.8000   10.4940   20.4030 C   0  0  0  0  0  0  0  0  0  0  0  0
   25.1270   10.1980   20.0940 C   0  0  0  0  0  0  0  0  0  0  0  0
   25.7950   10.9170   19.1100 C   0  0  0  0  0  0  0  0  0  0  0  0
   25.1340   11.9240   18.4340 C   0  0  0  0  0  0  0  0  0  0  0  0
   25.7680   12.6270   17.4930 F   0  0  0  0  0  0  0  0  0  0  0  0
   23.8160   12.2220   18.7170 C   0  0  0  0  0  0  0  0  0  0  0  0
   23.1470   11.5040   19.6960 C   0  0  0  0  0  0  0  0  0  0  0  0
   17.6990   12.7080   29.4760 H   0  0  0  0  0  0  0  0  0  0  0  0
   18.4640   11.1060   29.4770 H   0  0  0  0  0  0  0  0  0  0  0  0
   20.2930   11.8800   30.9250 H   0  0  0  0  0  0  0  0  0  0  0  0
   19.1620   13.1650   31.4090 H   0  0  0  0  0  0  0  0  0  0  0  0
   21.3590   13.6270   29.5570 H   0  0  0  0  0  0  0  0  0  0  0  0
   19.8780   14.6050   29.5390 H   0  0  0  0  0  0  0  0  0  0  0  0
   21.1370   11.1120   28.5850 H   0  0  0  0  0  0  0  0  0  0  0  0
   21.4170   12.2600   27.2860 H   0  0  0  0  0  0  0  0  0  0  0  0
   16.1000   13.3820   24.1980 H   0  0  0  0  0  0  0  0  0  0  0  0
   16.9360   10.0660   22.7850 H   0  0  0  0  0  0  0  0  0  0  0  0
   16.0850   11.5570   22.5140 H   0  0  0  0  0  0  0  0  0  0  0  0
   14.4420   11.4140   25.4140 H   0  0  0  0  0  0  0  0  0  0  0  0
   13.0650   10.6510   24.6310 H   0  0  0  0  0  0  0  0  0  0  0  0
   13.8710   12.0100   23.8440 H   0  0  0  0  0  0  0  0  0  0  0  0
   15.6630    9.2220   25.5840 H   0  0  0  0  0  0  0  0  0  0  0  0
   15.9210    8.2160   24.1500 H   0  0  0  0  0  0  0  0  0  0  0  0
   14.3040    8.3870   24.8390 H   0  0  0  0  0  0  0  0  0  0  0  0
   14.0290   10.4750   21.7780 H   0  0  0  0  0  0  0  0  0  0  0  0
   13.3160    9.1410   22.6930 H   0  0  0  0  0  0  0  0  0  0  0  0
   14.8810    8.9290   21.8980 H   0  0  0  0  0  0  0  0  0  0  0  0
   18.2680    9.7460   24.8430 H   0  0  0  0  0  0  0  0  0  0  0  0
   19.4140    9.9740   27.4480 H   0  0  0  0  0  0  0  0  0  0  0  0
   20.4280    9.2900   25.4680 H   0  0  0  0  0  0  0  0  0  0  0  0
   21.5810    9.5590   26.5950 H   0  0  0  0  0  0  0  0  0  0  0  0
   22.4310   11.3900   25.4630 H   0  0  0  0  0  0  0  0  0  0  0  0
   20.9020   11.5860   24.5470 H   0  0  0  0  0  0  0  0  0  0  0  0
   22.8560    9.2410   24.2900 H   0  0  0  0  0  0  0  0  0  0  0  0
   20.5340    9.5640   22.7150 H   0  0  0  0  0  0  0  0  0  0  0  0
   21.9580   11.3870   22.3060 H   0  0  0  0  0  0  0  0  0  0  0  0
   24.7700   11.0170   23.2550 H   0  0  0  0  0  0  0  0  0  0  0  0
   25.9250   13.0100   23.2250 H   0  0  0  0  0  0  0  0  0  0  0  0
   25.2160   13.3580   24.8240 H   0  0  0  0  0  0  0  0  0  0  0  0
   25.0620   14.5370   23.4920 H   0  0  0  0  0  0  0  0  0  0  0  0
   22.2170    9.2700   21.1120 H   0  0  0  0  0  0  0  0  0  0  0  0
   23.7550    8.9620   21.8980 H   0  0  0  0  0  0  0  0  0  0  0  0
   25.6490    9.4080   20.6330 H   0  0  0  0  0  0  0  0  0  0  0  0
   23.3130   13.0160   18.1730 H   0  0  0  0  0  0  0  0  0  0  0  0
   22.1110   11.7530   19.9120 H   0  0  0  0  0  0  0  0  0  0  0  0
   27.1580   10.6270   18.8090 C   0  0  0  0  0  0  0  0  0  0  0  0
   28.2700   10.3770   18.5880 N   0  0  0  0  0  0  0  0  0  0  0  0
  1  2  1  0  0  0  0
  1  4  1  0  0  0  0
  1 36  1  0  0  0  0
  1 37  1  0  0  0  0
  2  3  1  0  0  0  0
  2 38  1  0  0  0  0
  2 39  1  0  0  0  0
  3  4  1  0  0  0  0
  3 40  1  0  0  0  0
  3 41  1  0  0  0  0
  4  5  1  0  0  0  0
  4  6  1  0  0  0  0
  5 18  1  0  0  0  0
  5 42  1  0  0  0  0
  5 43  1  0  0  0  0
  6  7  1  0  0  0  0
  7  8  1  0  0  0  0
  7 17  2  0  0  0  0
  8  9  2  0  0  0  0
  9 10  1  0  0  0  0
  9 44  1  0  0  0  0
 10 11  1  0  0  0  0
 10 16  2  0  0  0  0
 11 12  1  0  0  0  0
 11 45  1  0  0  0  0
 11 46  1  0  0  0  0
 12 13  1  0  0  0  0
 12 14  1  0  0  0  0
 12 15  1  0  0  0  0
 13 47  1  0  0  0  0
 13 48  1  0  0  0  0
 13 49  1  0  0  0  0
 14 50  1  0  0  0  0
 14 51  1  0  0  0  0
 14 52  1  0  0  0  0
 15 53  1  0  0  0  0
 15 54  1  0  0  0  0
 15 55  1  0  0  0  0
 16 17  1  0  0  0  0
 16 56  1  0  0  0  0
 17 18  1  0  0  0  0
 18 19  1  0  0  0  0
 18 57  1  0  0  0  0
 19 20  1  0  0  0  0
 19 58  1  0  0  0  0
 19 59  1  0  0  0  0
 20 21  1  0  0  0  0
 20 60  1  0  0  0  0
 20 61  1  0  0  0  0
 21 22  1  0  0  0  0
 21 23  1  0  0  0  0
 21 62  1  0  0  0  0
 22 63  1  0  0  0  0
 23 24  1  0  0  0  0
 23 28  1  0  0  0  0
 23 64  1  0  0  0  0
 24 25  1  0  0  0  0
 24 65  1  0  0  0  0
 25 26  1  0  0  0  0
 25 27  2  0  0  0  0
 26 66  1  0  0  0  0
 26 67  1  0  0  0  0
 26 68  1  0  0  0  0
 28 29  1  0  0  0  0
 28 69  1  0  0  0  0
 28 70  1  0  0  0  0
 29 30  1  0  0  0  0
 29 35  2  0  0  0  0
 30 31  2  0  0  0  0
 30 71  1  0  0  0  0
 31 32  1  0  0  0  0
 31 74  1  0  0  0  0
 32 33  1  0  0  0  0
 32 34  2  0  0  0  0
 34 35  1  0  0  0  0
 34 72  1  0  0  0  0
 35 73  1  0  0  0  0
 74 75  3  0  0  0  0
M  CHG  1  19   1
M  END
>  <PARENT_CMPD_ID>
mcl886_28

>  <STANDARD_TYPE>
IC50

>  <RELATION>
=

>  <STANDARD_VALUE>
2.4000001

>  <STANDARD_UNITS>
nM

>  <COMPOUND_KEY>
28

>  <PUBMED_ID>
24900403

>  <JOURNAL>
ACS Med. Chem. Lett.

>  <YEAR>
2012

>  <VOLUME>
3

>  <FIRST_PAGE>
886

>  <Company>
Amgen

>  <idx>
296

>  <Model>
Valid

>  <target>
8.6197891

>  <des_pred_mlr>
7.1698899

>  <RF_Canvas>
7.9614115

>  <DNN_Canvas>
7.7814612

>  <pred_CoMFA>
8.2212

>  <pred_COMSIA>
7.4102001

>  <pred_abm5>
8.2423306

>  <pred_ff8>
7.276598

>  <pred_gau6>
7.9330621

>  <CID>
BACE_296

>  <active>
1

>  <des_class_bayes>
0

>  <maacs_class_bayes>
1

>  <radial_class_bayes>
1

>  <dend_class_bayes>
1

>  <molprint_class_bayes>
1

>  <RF_canvas>
1

>  <DNN_canvas>
1

$$$$
22924815_(R)-22
  MOE2015           3D

 60 64  0  0  1  0  0  0  0  0999 V2000
   16.2040   11.1880   22.2220 C   0  0  0  0  0  0  0  0  0  0  0  0
   16.9840   11.6340   21.0050 C   0  0  0  0  0  0  0  0  0  0  0  0
   18.1060   10.7500   20.7330 N   0  0  0  0  0  0  0  0  0  0  0  0
   19.3320   11.0490   21.2770 C   0  0  0  0  0  0  0  0  0  0  0  0
   20.4170   10.2930   21.0590 C   0  0  0  0  0  0  0  0  0  0  0  0
   20.2530    9.0930   20.2620 C   0  0  0  0  0  0  0  0  0  0  0  0
   19.0840    8.7550   19.7080 C   0  0  0  0  0  0  0  0  0  0  0  0
   17.8970    9.6280   19.9380 C   0  0  0  0  0  0  0  0  0  0  0  0
   16.8100    9.3350   19.4470 O   0  0  0  0  0  0  0  0  0  0  0  0
   18.8860    7.5390   18.8760 C   0  0  0  0  0  0  0  0  0  0  0  0
   21.8330   10.6020   21.5750 C   0  0  3  0  0  0  0  0  0  0  0  0
   21.8980   11.7650   22.5400 C   0  0  0  0  0  0  0  0  0  0  0  0
   21.7480   13.1250   22.3420 C   0  0  0  0  0  0  0  0  0  0  0  0
   21.8440   13.9720   23.4430 C   0  0  0  0  0  0  0  0  0  0  0  0
   22.0990   13.4600   24.7180 C   0  0  0  0  0  0  0  0  0  0  0  0
   22.2740   12.1010   24.8920 C   0  0  0  0  0  0  0  0  0  0  0  0
   22.1760   11.2830   23.7980 C   0  0  0  0  0  0  0  0  0  0  0  0
   22.3630    9.8510   23.6500 C   0  0  0  0  0  0  0  0  0  0  0  0
   22.2190    9.4140   22.4330 N   0  0  0  0  0  0  0  0  0  0  0  0
   22.6890    9.0530   24.6960 N   0  0  0  0  0  0  0  0  0  0  0  0
   22.5360   11.6110   26.1040 F   0  0  0  0  0  0  0  0  0  0  0  0
   22.8390   10.8350   20.4350 C   0  0  0  0  0  0  0  0  0  0  0  0
   22.4650   11.3250   19.1810 C   0  0  0  0  0  0  0  0  0  0  0  0
   23.4180   11.6140   18.2110 C   0  0  0  0  0  0  0  0  0  0  0  0
   24.7650   11.4530   18.4850 C   0  0  0  0  0  0  0  0  0  0  0  0
   25.1620   10.9640   19.7170 C   0  0  0  0  0  0  0  0  0  0  0  0
   24.2010   10.6550   20.6750 C   0  0  0  0  0  0  0  0  0  0  0  0
   15.3610   11.8620   22.4030 H   0  0  0  0  0  0  0  0  0  0  0  0
   16.8350   11.1860   23.1170 H   0  0  0  0  0  0  0  0  0  0  0  0
   15.8080   10.1760   22.0920 H   0  0  0  0  0  0  0  0  0  0  0  0
   17.3460   12.6610   21.1380 H   0  0  0  0  0  0  0  0  0  0  0  0
   16.3160   11.6460   20.1360 H   0  0  0  0  0  0  0  0  0  0  0  0
   19.3590   11.9490   21.8800 H   0  0  0  0  0  0  0  0  0  0  0  0
   21.1270    8.4600   20.1240 H   0  0  0  0  0  0  0  0  0  0  0  0
   18.1350    6.8820   19.3270 H   0  0  0  0  0  0  0  0  0  0  0  0
   19.8090    6.9600   18.7700 H   0  0  0  0  0  0  0  0  0  0  0  0
   18.5500    7.8110   17.8700 H   0  0  0  0  0  0  0  0  0  0  0  0
   21.5530   13.5330   21.3550 H   0  0  0  0  0  0  0  0  0  0  0  0
   21.7230   15.0440   23.3090 H   0  0  0  0  0  0  0  0  0  0  0  0
   22.1740   14.1280   25.5710 H   0  0  0  0  0  0  0  0  0  0  0  0
   22.8300    8.0650   24.5320 H   0  0  0  0  0  0  0  0  0  0  0  0
   22.8000    9.4110   25.6380 H   0  0  0  0  0  0  0  0  0  0  0  0
   21.4220   11.5110   18.9370 H   0  0  0  0  0  0  0  0  0  0  0  0
   23.1040   11.9940   17.2420 H   0  0  0  0  0  0  0  0  0  0  0  0
   25.4950   11.7040   17.7200 H   0  0  0  0  0  0  0  0  0  0  0  0
   24.5000   10.3090   21.6600 H   0  0  0  0  0  0  0  0  0  0  0  0
   27.0800   10.1510   21.0210 C   0  0  0  0  0  0  0  0  0  0  0  0
   26.5160    9.3740   21.7840 O   0  0  0  0  0  0  0  0  0  0  0  0
   26.5280   10.8490   19.9730 N   0  0  0  0  0  0  0  0  0  0  0  0
   27.1930   11.3090   19.3530 H   0  0  0  0  0  0  0  0  0  0  0  0
   31.1570   10.8490   21.4290 C   0  0  0  0  0  0  0  0  0  0  0  0
   32.2190   11.0610   21.5120 H   0  0  0  0  0  0  0  0  0  0  0  0
   30.3770   11.5340   20.5020 C   0  0  0  0  0  0  0  0  0  0  0  0
   30.8190   12.2850   19.8540 H   0  0  0  0  0  0  0  0  0  0  0  0
   29.0590   11.3300   20.3360 N   0  0  0  0  0  0  0  0  0  0  0  0
   28.5250   10.3830   21.1640 C   0  0  0  0  0  0  0  0  0  0  0  0
   29.2120    9.6470   22.1200 C   0  0  0  0  0  0  0  0  0  0  0  0
   28.7170    8.9100   22.7440 H   0  0  0  0  0  0  0  0  0  0  0  0
   30.5620    9.8900   22.2490 C   0  0  0  0  0  0  0  0  0  0  0  0
   31.1560    9.3470   22.9780 H   0  0  0  0  0  0  0  0  0  0  0  0
  1  2  1  0  0  0  0
  1 28  1  0  0  0  0
  1 29  1  0  0  0  0
  1 30  1  0  0  0  0
  2  3  1  0  0  0  0
  2 31  1  0  0  0  0
  2 32  1  0  0  0  0
  3  4  1  0  0  0  0
  3  8  1  0  0  0  0
  4  5  2  0  0  0  0
  4 33  1  0  0  0  0
  5  6  1  0  0  0  0
  5 11  1  0  0  0  0
  6  7  2  0  0  0  0
  6 34  1  0  0  0  0
  7  8  1  0  0  0  0
  7 10  1  0  0  0  0
  8  9  2  0  0  0  0
 10 35  1  0  0  0  0
 10 36  1  0  0  0  0
 10 37  1  0  0  0  0
 11 12  1  0  0  0  0
 11 19  1  0  0  0  0
 11 22  1  0  0  0  0
 12 13  1  0  0  0  0
 12 17  2  0  0  0  0
 13 14  2  0  0  0  0
 13 38  1  0  0  0  0
 14 15  1  0  0  0  0
 14 39  1  0  0  0  0
 15 16  2  0  0  0  0
 15 40  1  0  0  0  0
 16 17  1  0  0  0  0
 16 21  1  0  0  0  0
 17 18  1  0  0  0  0
 18 19  2  0  0  0  0
 18 20  1  0  0  0  0
 20 41  1  0  0  0  0
 20 42  1  0  0  0  0
 22 23  1  0  0  0  0
 22 27  2  0  0  0  0
 23 24  2  0  0  0  0
 23 43  1  0  0  0  0
 24 25  1  0  0  0  0
 24 44  1  0  0  0  0
 25 26  2  0  0  0  0
 25 45  1  0  0  0  0
 26 27  1  0  0  0  0
 26 49  1  0  0  0  0
 27 46  1  0  0  0  0
 47 48  2  0  0  0  0
 47 49  1  0  0  0  0
 47 56  1  0  0  0  0
 49 50  1  0  0  0  0
 51 52  1  0  0  0  0
 51 53  1  0  0  0  0
 51 59  2  0  0  0  0
 53 54  1  0  0  0  0
 53 55  2  0  0  0  0
 55 56  1  0  0  0  0
 56 57  2  0  0  0  0
 57 58  1  0  0  0  0
 57 59  1  0  0  0  0
 59 60  1  0  0  0  0
M  END
>  <PARENT_CMPD_ID>
22924815_(R)-22

>  <STANDARD_TYPE>
IC50

>  <RELATION>
=

>  <STANDARD_VALUE>
2.49

>  <STANDARD_UNITS>
nM

>  <COMPOUND_KEY>
(R)-22

>  <PUBMED_ID>
22924815

>  <JOURNAL>
J.Med.Chem.

>  <YEAR>
2012

>  <VOLUME>
55

>  <FIRST_PAGE>
9346

>  <Company>
AstraZeneca

>  <idx>
297

>  <Model>
Valid

>  <target>
8.6038008

>  <des_pred_mlr>
7.1736999

>  <RF_Canvas>
7.7398005

>  <DNN_Canvas>
8.06143

>  <pred_CoMFA>
9.2413998

>  <pred_COMSIA>
8.6691999

>  <pred_abm5>
8.3505878

>  <pred_ff8>
6.7119613

>  <pred_gau6>
8.4668264

>  <CID>
BACE_297

>  <active>
1

>  <des_class_bayes>
1

>  <maacs_class_bayes>
1

>  <radial_class_bayes>
1

>  <dend_class_bayes>
1

>  <molprint_class_bayes>
1

>  <RF_canvas>
1

>  <DNN_canvas>
1

$$$$
21707077_46
  MOE2015           3D

 64 67  0  0  1  0  0  0  0  0999 V2000
   20.6840   12.9840   18.6770 C   0  0  0  0  0  0  0  0  0  0  0  0
   21.5510   13.9710   18.1770 C   0  0  0  0  0  0  0  0  0  0  0  0
   21.1300   14.7940   17.1310 C   0  0  0  0  0  0  0  0  0  0  0  0
   21.7910   15.5560   16.7450 H   0  0  0  0  0  0  0  0  0  0  0  0
   21.0450   12.1310   19.7240 C   0  0  0  0  0  0  0  0  0  0  0  0
   21.2420   10.7720   19.4700 C   0  0  0  0  0  0  0  0  0  0  0  0
   21.1250   10.3900   18.4660 H   0  0  0  0  0  0  0  0  0  0  0  0
   21.1810   12.6190   21.0270 C   0  0  0  0  0  0  0  0  0  0  0  0
   21.0110   13.6660   21.2330 H   0  0  0  0  0  0  0  0  0  0  0  0
   22.0390   11.3280   24.3910 C   0  0  0  0  0  0  0  0  0  0  0  0
   22.9680   14.1880   18.7410 C   0  0  0  0  0  0  0  0  0  0  0  0
   23.1510   13.4760   19.5460 H   0  0  0  0  0  0  0  0  0  0  0  0
   23.0540   15.2040   19.1270 H   0  0  0  0  0  0  0  0  0  0  0  0
   23.7010   14.0370   17.9490 H   0  0  0  0  0  0  0  0  0  0  0  0
   21.0080   11.4300   26.6850 C   0  0  3  0  0  0  0  0  0  0  0  0
   21.0070   10.3410   26.6490 H   0  0  0  0  0  0  0  0  0  0  0  0
   19.6570   11.9440   26.1690 C   0  0  0  0  0  0  0  0  0  0  0  0
   17.0580   11.1470   23.9620 C   0  0  0  0  0  0  0  0  0  0  0  0
   16.0110   11.4300   23.8540 H   0  0  0  0  0  0  0  0  0  0  0  0
   16.7470    9.5670   22.0290 C   0  0  0  0  0  0  0  0  0  0  0  0
   15.6760    9.7680   21.9920 H   0  0  0  0  0  0  0  0  0  0  0  0
   16.9380    8.5500   21.6870 H   0  0  0  0  0  0  0  0  0  0  0  0
   17.4250   11.9910   21.6230 C   0  0  0  0  0  0  0  0  0  0  0  0
   16.3990   12.3560   21.5740 H   0  0  0  0  0  0  0  0  0  0  0  0
   18.0640   12.6190   21.0020 H   0  0  0  0  0  0  0  0  0  0  0  0
   17.2290    9.7010   23.4910 C   0  0  0  0  0  0  0  0  0  0  0  0
   16.6410    9.0410   24.1280 H   0  0  0  0  0  0  0  0  0  0  0  0
   18.2810    9.4220   23.5520 H   0  0  0  0  0  0  0  0  0  0  0  0
   17.4700   10.5510   21.0900 C   0  0  0  0  0  0  0  0  0  0  0  0
   16.9890   10.5220   20.1120 H   0  0  0  0  0  0  0  0  0  0  0  0
   18.5110   10.2440   20.9920 H   0  0  0  0  0  0  0  0  0  0  0  0
   17.9140   12.0650   23.0810 C   0  0  0  0  0  0  0  0  0  0  0  0
   18.9550   11.7460   23.1300 H   0  0  0  0  0  0  0  0  0  0  0  0
   17.8310   13.0910   23.4390 H   0  0  0  0  0  0  0  0  0  0  0  0
   17.3750   11.3150   25.4590 C   0  0  0  0  0  0  0  0  0  0  0  0
   16.7010   10.6640   26.0150 H   0  0  0  0  0  0  0  0  0  0  0  0
   17.1780   12.3540   25.7240 H   0  0  0  0  0  0  0  0  0  0  0  0
   18.7600   10.9970   25.8830 N   0  0  0  0  0  0  0  0  0  0  0  0
   19.0350   10.0280   25.9580 H   0  0  0  0  0  0  0  0  0  0  0  0
   19.4450   13.1560   26.0680 O   0  0  0  0  0  0  0  0  0  0  0  0
   21.1960   11.9200   28.1360 C   0  0  0  0  0  0  0  0  0  0  0  0
   21.2160   13.0100   28.1450 H   0  0  0  0  0  0  0  0  0  0  0  0
   22.1340   11.5190   28.5200 H   0  0  0  0  0  0  0  0  0  0  0  0
   20.3740   11.5790   28.7660 H   0  0  0  0  0  0  0  0  0  0  0  0
   22.1780   11.9070   25.8040 C   0  0  0  0  0  0  0  0  0  0  0  0
   22.1690   12.9960   25.7510 H   0  0  0  0  0  0  0  0  0  0  0  0
   23.1190   11.5720   26.2410 H   0  0  0  0  0  0  0  0  0  0  0  0
   22.2250    9.9790   24.0560 C   0  0  0  0  0  0  0  0  0  0  0  0
   22.0720    9.5580   22.7890 N   0  0  0  0  0  0  0  0  0  0  0  0
   22.5620    9.0810   24.9770 N   0  0  0  0  0  0  0  0  0  0  0  0
   22.6950    8.1150   24.7150 H   0  0  0  0  0  0  0  0  0  0  0  0
   22.6850    9.3650   25.9380 H   0  0  0  0  0  0  0  0  0  0  0  0
   21.6890   12.2170   23.3710 C   0  0  0  0  0  0  0  0  0  0  0  0
   21.5360   13.2630   23.5940 H   0  0  0  0  0  0  0  0  0  0  0  0
   21.5370   11.7510   22.0630 C   0  0  0  0  0  0  0  0  0  0  0  0
   21.7360   10.3970   21.7980 C   0  0  0  0  0  0  0  0  0  0  0  0
   21.5880    9.9070   20.5040 C   0  0  0  0  0  0  0  0  0  0  0  0
   21.7410    8.8570   20.3020 H   0  0  0  0  0  0  0  0  0  0  0  0
   19.4110   12.8350   18.1190 C   0  0  0  0  0  0  0  0  0  0  0  0
   18.7440   12.0760   18.4990 H   0  0  0  0  0  0  0  0  0  0  0  0
   18.9990   13.6590   17.0770 C   0  0  0  0  0  0  0  0  0  0  0  0
   18.0130   13.5420   16.6520 H   0  0  0  0  0  0  0  0  0  0  0  0
   19.8580   14.6340   16.5830 C   0  0  0  0  0  0  0  0  0  0  0  0
   19.5390   15.2700   15.7710 H   0  0  0  0  0  0  0  0  0  0  0  0
  1  2  2  0  0  0  0
  1  5  1  0  0  0  0
  1 59  1  0  0  0  0
  2  3  1  0  0  0  0
  2 11  1  0  0  0  0
  3  4  1  0  0  0  0
  3 63  2  0  0  0  0
  5  6  1  0  0  0  0
  5  8  2  0  0  0  0
  6  7  1  0  0  0  0
  6 57  2  0  0  0  0
  8  9  1  0  0  0  0
  8 55  1  0  0  0  0
 10 45  1  0  0  0  0
 10 48  2  0  0  0  0
 10 53  1  0  0  0  0
 11 12  1  0  0  0  0
 11 13  1  0  0  0  0
 11 14  1  0  0  0  0
 15 16  1  0  0  0  0
 15 17  1  0  0  0  0
 15 41  1  0  0  0  0
 15 45  1  0  0  0  0
 17 38  1  0  0  0  0
 17 40  2  0  0  0  0
 18 19  1  0  0  0  0
 18 26  1  0  0  0  0
 18 32  1  0  0  0  0
 18 35  1  0  0  0  0
 20 21  1  0  0  0  0
 20 22  1  0  0  0  0
 20 26  1  0  0  0  0
 20 29  1  0  0  0  0
 23 24  1  0  0  0  0
 23 25  1  0  0  0  0
 23 29  1  0  0  0  0
 23 32  1  0  0  0  0
 26 27  1  0  0  0  0
 26 28  1  0  0  0  0
 29 30  1  0  0  0  0
 29 31  1  0  0  0  0
 32 33  1  0  0  0  0
 32 34  1  0  0  0  0
 35 36  1  0  0  0  0
 35 37  1  0  0  0  0
 35 38  1  0  0  0  0
 38 39  1  0  0  0  0
 41 42  1  0  0  0  0
 41 43  1  0  0  0  0
 41 44  1  0  0  0  0
 45 46  1  0  0  0  0
 45 47  1  0  0  0  0
 48 49  1  0  0  0  0
 48 50  1  0  0  0  0
 49 56  2  0  0  0  0
 50 51  1  0  0  0  0
 50 52  1  0  0  0  0
 53 54  1  0  0  0  0
 53 55  2  0  0  0  0
 55 56  1  0  0  0  0
 56 57  1  0  0  0  0
 57 58  1  0  0  0  0
 59 60  1  0  0  0  0
 59 61  2  0  0  0  0
 61 62  1  0  0  0  0
 61 63  1  0  0  0  0
 63 64  1  0  0  0  0
M  END
>  <PARENT_CMPD_ID>
21707077_46

>  <STANDARD_TYPE>
IC50

>  <RELATION>
=

>  <STANDARD_VALUE>
0.0024999999

>  <STANDARD_UNITS>
uM

>  <COMPOUND_KEY>
46

>  <PUBMED_ID>
21707077

>  <JOURNAL>
J.Med.Chem.

>  <YEAR>
2011

>  <VOLUME>
54

>  <FIRST_PAGE>
5836

>  <Company>
Amgen

>  <idx>
298

>  <Model>
Valid

>  <target>
8.6020603

>  <des_pred_mlr>
7.31393

>  <RF_Canvas>
7.1187649

>  <DNN_Canvas>
7.2719293

>  <pred_CoMFA>
7.7575002

>  <pred_COMSIA>
7.8641

>  <pred_abm5>
8.1156063

>  <pred_ff8>
6.0525584

>  <pred_gau6>
7.7418652

>  <CID>
BACE_298

>  <active>
1

>  <des_class_bayes>
1

>  <maacs_class_bayes>
0

>  <radial_class_bayes>
1

>  <dend_class_bayes>
1

>  <molprint_class_bayes>
1

>  <RF_canvas>
1

>  <DNN_canvas>
0

$$$$
23769639_21
  MOE2015           3D

 95101  0  0  1  0  0  0  0  0999 V2000
   19.2000   12.3620   29.6400 C   0  0  0  0  0  0  0  0  0  0  0  0
   20.1940   12.9530   30.6360 C   0  0  0  0  0  0  0  0  0  0  0  0
   20.6970   13.8740   29.5270 C   0  0  0  0  0  0  0  0  0  0  0  0
   20.0840   12.9040   28.4830 C   0  0  0  0  0  0  0  0  0  0  0  0
   21.1020   11.9480   27.8720 C   0  0  0  0  0  0  0  0  0  0  0  0
   19.3650   13.5840   27.4300 O   0  0  0  0  0  0  0  0  0  0  0  0
   18.8010   12.7920   26.4670 C   0  0  0  0  0  0  0  0  0  0  0  0
   17.7780   13.3540   25.7160 C   0  0  0  0  0  0  0  0  0  0  0  0
   17.1520   12.6080   24.7280 C   0  0  0  0  0  0  0  0  0  0  0  0
   17.5400   11.2940   24.4870 C   0  0  0  0  0  0  0  0  0  0  0  0
   16.8570   10.4730   23.4350 C   0  0  0  0  0  0  0  0  0  0  0  0
   15.9060    9.4590   24.0350 C   0  0  0  0  0  0  0  0  0  0  0  0
   18.5670   10.7400   25.2510 C   0  0  0  0  0  0  0  0  0  0  0  0
   19.2310   11.4900   26.2260 C   0  0  0  0  0  0  0  0  0  0  0  0
   20.3660   10.9080   27.0250 C   0  0  3  0  0  0  0  0  0  0  0  0
   21.3720   10.1430   26.2040 N   0  3  0  0  0  0  0  0  0  0  0  0
   22.0410   10.8920   25.0880 C   0  0  0  0  0  0  0  0  0  0  0  0
   22.4710    9.8800   24.0280 C   0  0  3  0  0  0  0  0  0  0  0  0
   21.3200    9.1310   23.6320 O   0  0  0  0  0  0  0  0  0  0  0  0
   23.1080   10.5490   22.8070 C   0  0  3  0  0  0  0  0  0  0  0  0
   23.6220    9.4990   21.8030 C   0  0  0  0  0  0  0  0  0  0  0  0
   24.3610   10.1090   20.6450 C   0  0  0  0  0  0  0  0  0  0  0  0
   25.7540   10.0710   20.6080 C   0  0  0  0  0  0  0  0  0  0  0  0
   23.6780   10.7360   19.6110 C   0  0  0  0  0  0  0  0  0  0  0  0
   24.3750   11.3160   18.5610 C   0  0  0  0  0  0  0  0  0  0  0  0
   25.7610   11.2690   18.5300 C   0  0  0  0  0  0  0  0  0  0  0  0
   26.4630   10.6380   19.5510 C   0  0  0  0  0  0  0  0  0  0  0  0
   27.9490   10.4540   19.4660 C   0  0  0  0  0  0  0  0  0  0  0  0
   28.7750   11.7300   19.4730 C   0  0  0  0  0  0  0  0  0  0  0  0
   28.7180   12.4560   20.8050 C   0  0  0  0  0  0  0  0  0  0  0  0
   27.9650   13.7730   20.7090 C   0  0  0  0  0  0  0  0  0  0  0  0
   27.2350   14.0080   21.9380 N   0  0  0  0  0  0  0  0  0  0  0  0
   25.9800   13.4900   22.0130 C   0  0  0  0  0  0  0  0  0  0  0  0
   27.8420   14.6790   23.0030 C   0  0  0  0  0  0  0  0  0  0  0  0
   28.9860   15.1280   22.9250 O   0  0  0  0  0  0  0  0  0  0  0  0
   27.0170   14.7840   24.3030 C   0  0  0  0  0  0  0  0  0  0  0  0
   25.8190   14.1690   24.3070 C   0  0  0  0  0  0  0  0  0  0  0  0
   25.3100   13.5100   23.1580 C   0  0  0  0  0  0  0  0  0  0  0  0
   24.0340   12.8080   23.0930 C   0  0  0  0  0  0  0  0  0  0  0  0
   23.0170   13.4140   22.8010 O   0  0  0  0  0  0  0  0  0  0  0  0
   24.1760   11.4450   23.2030 N   0  0  0  0  0  0  0  0  0  0  0  0
   18.2050   12.8220   29.6880 H   0  0  0  0  0  0  0  0  0  0  0  0
   19.0790   11.2770   29.7000 H   0  0  0  0  0  0  0  0  0  0  0  0
   20.9440   12.2350   30.9860 H   0  0  0  0  0  0  0  0  0  0  0  0
   19.7550   13.4530   31.5040 H   0  0  0  0  0  0  0  0  0  0  0  0
   21.7830   14.0060   29.4920 H   0  0  0  0  0  0  0  0  0  0  0  0
   20.2310   14.8660   29.5360 H   0  0  0  0  0  0  0  0  0  0  0  0
   21.7010   11.4450   28.6420 H   0  0  0  0  0  0  0  0  0  0  0  0
   21.8030   12.5320   27.2620 H   0  0  0  0  0  0  0  0  0  0  0  0
   17.4600   14.3760   25.9080 H   0  0  0  0  0  0  0  0  0  0  0  0
   16.3480   13.0610   24.1520 H   0  0  0  0  0  0  0  0  0  0  0  0
   17.6130    9.9610   22.8270 H   0  0  0  0  0  0  0  0  0  0  0  0
   16.3060   11.1240   22.7450 H   0  0  0  0  0  0  0  0  0  0  0  0
   16.4290    8.7460   24.6810 H   0  0  0  0  0  0  0  0  0  0  0  0
   15.4090    8.8900   23.2430 H   0  0  0  0  0  0  0  0  0  0  0  0
   15.1310    9.9480   24.6350 H   0  0  0  0  0  0  0  0  0  0  0  0
   18.8380    9.7030   25.0680 H   0  0  0  0  0  0  0  0  0  0  0  0
   19.9320   10.1580   27.6980 H   0  0  0  0  0  0  0  0  0  0  0  0
   20.8970    9.3450   25.7490 H   0  0  0  0  0  0  0  0  0  0  0  0
   22.0750    9.7130   26.8180 H   0  0  0  0  0  0  0  0  0  0  0  0
   22.8860   11.4290   25.5280 H   0  0  0  0  0  0  0  0  0  0  0  0
   21.3230   11.6020   24.6690 H   0  0  0  0  0  0  0  0  0  0  0  0
   23.1780    9.1730   24.4800 H   0  0  0  0  0  0  0  0  0  0  0  0
   20.7990    9.6430   22.9830 H   0  0  0  0  0  0  0  0  0  0  0  0
   22.3350   11.1350   22.2920 H   0  0  0  0  0  0  0  0  0  0  0  0
   22.7870    8.9010   21.4160 H   0  0  0  0  0  0  0  0  0  0  0  0
   24.2810    8.7870   22.3180 H   0  0  0  0  0  0  0  0  0  0  0  0
   26.2980    9.5630   21.4030 H   0  0  0  0  0  0  0  0  0  0  0  0
   22.5920   10.7900   19.6190 H   0  0  0  0  0  0  0  0  0  0  0  0
   23.8320   11.8090   17.7580 H   0  0  0  0  0  0  0  0  0  0  0  0
   26.2880   11.7040   17.6840 H   0  0  0  0  0  0  0  0  0  0  0  0
   28.1610    9.9030   18.5400 H   0  0  0  0  0  0  0  0  0  0  0  0
   28.2980    9.7970   20.2730 H   0  0  0  0  0  0  0  0  0  0  0  0
   28.5020   12.3840   18.6370 H   0  0  0  0  0  0  0  0  0  0  0  0
   29.8180   11.4390   19.2920 H   0  0  0  0  0  0  0  0  0  0  0  0
   29.7430   12.6790   21.1320 H   0  0  0  0  0  0  0  0  0  0  0  0
   28.3070   11.8030   21.5850 H   0  0  0  0  0  0  0  0  0  0  0  0
   27.2610   13.7960   19.8680 H   0  0  0  0  0  0  0  0  0  0  0  0
   28.6750   14.5910   20.5400 H   0  0  0  0  0  0  0  0  0  0  0  0
   25.5840   13.0110   21.1220 H   0  0  0  0  0  0  0  0  0  0  0  0
   25.1800   14.1990   25.1820 H   0  0  0  0  0  0  0  0  0  0  0  0
   25.0670   11.0630   23.5110 H   0  0  0  0  0  0  0  0  0  0  0  0
   28.7060   17.0640   26.7160 C   0  0  0  0  0  0  0  0  0  0  0  0
   28.1080   17.9760   26.6030 H   0  0  0  0  0  0  0  0  0  0  0  0
   29.7020   17.3480   27.0690 H   0  0  0  0  0  0  0  0  0  0  0  0
   28.7510   16.2980   25.3970 C   0  0  0  0  0  0  0  0  0  0  0  0
   29.6370   15.6550   25.3630 H   0  0  0  0  0  0  0  0  0  0  0  0
   28.7700   17.0030   24.5590 H   0  0  0  0  0  0  0  0  0  0  0  0
   27.5340   15.4750   25.4070 N   0  0  0  0  0  0  0  0  0  0  0  0
   26.9320   15.4880   26.7440 C   0  0  0  0  0  0  0  0  0  0  0  0
   26.6660   14.4840   27.0890 H   0  0  0  0  0  0  0  0  0  0  0  0
   26.0340   16.1160   26.7390 H   0  0  0  0  0  0  0  0  0  0  0  0
   28.0030   16.0930   27.6430 C   0  0  0  0  0  0  0  0  0  0  0  0
   28.7020   15.3160   27.9740 H   0  0  0  0  0  0  0  0  0  0  0  0
   27.5830   16.5770   28.5290 H   0  0  0  0  0  0  0  0  0  0  0  0
  1  2  1  0  0  0  0
  1  4  1  0  0  0  0
  1 42  1  0  0  0  0
  1 43  1  0  0  0  0
  2  3  1  0  0  0  0
  2 44  1  0  0  0  0
  2 45  1  0  0  0  0
  3  4  1  0  0  0  0
  3 46  1  0  0  0  0
  3 47  1  0  0  0  0
  4  5  1  0  0  0  0
  4  6  1  0  0  0  0
  5 15  1  0  0  0  0
  5 48  1  0  0  0  0
  5 49  1  0  0  0  0
  6  7  1  0  0  0  0
  7  8  1  0  0  0  0
  7 14  2  0  0  0  0
  8  9  2  0  0  0  0
  8 50  1  0  0  0  0
  9 10  1  0  0  0  0
  9 51  1  0  0  0  0
 10 11  1  0  0  0  0
 10 13  2  0  0  0  0
 11 12  1  0  0  0  0
 11 52  1  0  0  0  0
 11 53  1  0  0  0  0
 12 54  1  0  0  0  0
 12 55  1  0  0  0  0
 12 56  1  0  0  0  0
 13 14  1  0  0  0  0
 13 57  1  0  0  0  0
 14 15  1  0  0  0  0
 15 16  1  0  0  0  0
 15 58  1  0  0  0  0
 16 17  1  0  0  0  0
 16 59  1  0  0  0  0
 16 60  1  0  0  0  0
 17 18  1  0  0  0  0
 17 61  1  0  0  0  0
 17 62  1  0  0  0  0
 18 19  1  0  0  0  0
 18 20  1  0  0  0  0
 18 63  1  0  0  0  0
 19 64  1  0  0  0  0
 20 21  1  0  0  0  0
 20 41  1  0  0  0  0
 20 65  1  0  0  0  0
 21 22  1  0  0  0  0
 21 66  1  0  0  0  0
 21 67  1  0  0  0  0
 22 23  1  0  0  0  0
 22 24  2  0  0  0  0
 23 27  2  0  0  0  0
 23 68  1  0  0  0  0
 24 25  1  0  0  0  0
 24 69  1  0  0  0  0
 25 26  2  0  0  0  0
 25 70  1  0  0  0  0
 26 27  1  0  0  0  0
 26 71  1  0  0  0  0
 27 28  1  0  0  0  0
 28 29  1  0  0  0  0
 28 72  1  0  0  0  0
 28 73  1  0  0  0  0
 29 30  1  0  0  0  0
 29 74  1  0  0  0  0
 29 75  1  0  0  0  0
 30 31  1  0  0  0  0
 30 76  1  0  0  0  0
 30 77  1  0  0  0  0
 31 32  1  0  0  0  0
 31 78  1  0  0  0  0
 31 79  1  0  0  0  0
 32 33  1  0  0  0  0
 32 34  1  0  0  0  0
 33 38  2  0  0  0  0
 33 80  1  0  0  0  0
 34 35  2  0  0  0  0
 34 36  1  0  0  0  0
 36 37  2  0  0  0  0
 36 89  1  0  0  0  0
 37 38  1  0  0  0  0
 37 81  1  0  0  0  0
 38 39  1  0  0  0  0
 39 40  2  0  0  0  0
 39 41  1  0  0  0  0
 41 82  1  0  0  0  0
 83 84  1  0  0  0  0
 83 85  1  0  0  0  0
 83 86  1  0  0  0  0
 83 93  1  0  0  0  0
 86 87  1  0  0  0  0
 86 88  1  0  0  0  0
 86 89  1  0  0  0  0
 89 90  1  0  0  0  0
 90 91  1  0  0  0  0
 90 92  1  0  0  0  0
 90 93  1  0  0  0  0
 93 94  1  0  0  0  0
 93 95  1  0  0  0  0
M  CHG  1  16   1
M  END
>  <PARENT_CMPD_ID>
23769639_21

>  <STANDARD_TYPE>
IC50

>  <RELATION>
=

>  <STANDARD_VALUE>
0.0024999999

>  <STANDARD_UNITS>
uM

>  <COMPOUND_KEY>
21

>  <PUBMED_ID>
23769639

>  <JOURNAL>
Bioorg.Med.Chem.Lett.

>  <YEAR>
2013

>  <VOLUME>
23

>  <FIRST_PAGE>
4459

>  <Company>
Amgen

>  <idx>
299

>  <Model>
Valid

>  <target>
8.6020603

>  <des_pred_mlr>
14.7442

>  <RF_Canvas>
7.9913583

>  <DNN_Canvas>
8.3526115

>  <pred_CoMFA>
8.4491997

>  <pred_COMSIA>
8.5699997

>  <pred_abm5>
8.1679478

>  <pred_ff8>
7.4391794

>  <pred_gau6>
8.0630264

>  <CID>
BACE_299

>  <active>
1

>  <des_class_bayes>
0

>  <maacs_class_bayes>
1

>  <radial_class_bayes>
1

>  <dend_class_bayes>
1

>  <molprint_class_bayes>
1

>  <RF_canvas>
1

>  <DNN_canvas>
1

$$$$
22924815_(R)-42
  MOE2015           3D

 61 65  0  0  1  0  0  0  0  0999 V2000
   16.2370   11.1940   22.2020 C   0  0  0  0  0  0  0  0  0  0  0  0
   17.0400   11.6400   21.0000 C   0  0  0  0  0  0  0  0  0  0  0  0
   18.1560   10.7440   20.7350 N   0  0  0  0  0  0  0  0  0  0  0  0
   19.3840   11.0340   21.2820 C   0  0  0  0  0  0  0  0  0  0  0  0
   20.4670   10.2700   21.0730 C   0  0  0  0  0  0  0  0  0  0  0  0
   20.2900    9.0710   20.2750 C   0  0  0  0  0  0  0  0  0  0  0  0
   19.1190    8.7440   19.7170 C   0  0  0  0  0  0  0  0  0  0  0  0
   17.9350    9.6220   19.9430 C   0  0  0  0  0  0  0  0  0  0  0  0
   16.8450    9.3340   19.4550 O   0  0  0  0  0  0  0  0  0  0  0  0
   18.9140    7.5310   18.8820 C   0  0  0  0  0  0  0  0  0  0  0  0
   21.8880   10.5640   21.6070 C   0  0  3  0  0  0  0  0  0  0  0  0
   21.9370   11.7150   22.5840 C   0  0  0  0  0  0  0  0  0  0  0  0
   21.7890   13.0720   22.3980 C   0  0  0  0  0  0  0  0  0  0  0  0
   21.8730   13.8870   23.5160 C   0  0  0  0  0  0  0  0  0  0  0  0
   22.1150   13.3840   24.7890 C   0  0  0  0  0  0  0  0  0  0  0  0
   22.2890   12.0270   24.9480 C   0  0  0  0  0  0  0  0  0  0  0  0
   22.1990   11.2220   23.8420 C   0  0  0  0  0  0  0  0  0  0  0  0
   22.3870    9.7930   23.6830 C   0  0  0  0  0  0  0  0  0  0  0  0
   22.2610    9.3690   22.4590 N   0  0  0  0  0  0  0  0  0  0  0  0
   22.6960    8.9910   24.7290 N   0  0  0  0  0  0  0  0  0  0  0  0
   22.5490   11.5250   26.1540 F   0  0  0  0  0  0  0  0  0  0  0  0
   22.9280   10.8000   20.4950 C   0  0  0  0  0  0  0  0  0  0  0  0
   22.5580   11.1960   19.2090 C   0  0  0  0  0  0  0  0  0  0  0  0
   23.5120   11.4260   18.2340 C   0  0  0  0  0  0  0  0  0  0  0  0
   24.8590   11.3090   18.5370 C   0  0  0  0  0  0  0  0  0  0  0  0
   25.2920   10.9800   19.8240 C   0  0  0  0  0  0  0  0  0  0  0  0
   24.3030   10.7090   20.7790 C   0  0  0  0  0  0  0  0  0  0  0  0
   26.7240   10.9730   20.1630 C   0  0  0  0  0  0  0  0  0  0  0  0
   27.2870   10.1040   21.1010 C   0  0  0  0  0  0  0  0  0  0  0  0
   28.6410   10.1800   21.4100 C   0  0  0  0  0  0  0  0  0  0  0  0
   29.4170   11.1140   20.7490 C   0  0  0  0  0  0  0  0  0  0  0  0
   28.9340   11.9660   19.8290 N   0  0  0  0  0  0  0  0  0  0  0  0
   27.6100   11.8810   19.5770 C   0  0  0  0  0  0  0  0  0  0  0  0
   29.2310    9.3410   22.3930 C   0  0  0  0  0  0  0  0  0  0  0  0
   29.7700    8.6670   23.2250 C   0  0  0  0  0  0  0  0  0  0  0  0
   30.4440    7.8640   24.2350 C   0  0  0  0  0  0  0  0  0  0  0  0
   15.4000   11.8780   22.3770 H   0  0  0  0  0  0  0  0  0  0  0  0
   16.8560   11.1760   23.1060 H   0  0  0  0  0  0  0  0  0  0  0  0
   15.8300   10.1880   22.0590 H   0  0  0  0  0  0  0  0  0  0  0  0
   17.4100   12.6610   21.1450 H   0  0  0  0  0  0  0  0  0  0  0  0
   16.3840   11.6660   20.1210 H   0  0  0  0  0  0  0  0  0  0  0  0
   19.4130   11.9340   21.8840 H   0  0  0  0  0  0  0  0  0  0  0  0
   21.1590    8.4300   20.1380 H   0  0  0  0  0  0  0  0  0  0  0  0
   18.1600    6.8760   19.3310 H   0  0  0  0  0  0  0  0  0  0  0  0
   19.8350    6.9470   18.7740 H   0  0  0  0  0  0  0  0  0  0  0  0
   18.5800    7.8070   17.8770 H   0  0  0  0  0  0  0  0  0  0  0  0
   21.6050   13.5030   21.4200 H   0  0  0  0  0  0  0  0  0  0  0  0
   21.7140   15.2020   23.3650 F   0  0  0  0  0  0  0  0  0  0  0  0
   22.1790   14.0530   25.6390 H   0  0  0  0  0  0  0  0  0  0  0  0
   22.8370    8.0020   24.5630 H   0  0  0  0  0  0  0  0  0  0  0  0
   22.7900    9.3410   25.6750 H   0  0  0  0  0  0  0  0  0  0  0  0
   21.5140   11.3300   18.9330 H   0  0  0  0  0  0  0  0  0  0  0  0
   23.2050   11.7070   17.2290 H   0  0  0  0  0  0  0  0  0  0  0  0
   25.5720   11.4910   17.7350 H   0  0  0  0  0  0  0  0  0  0  0  0
   24.6020   10.4520   21.7940 H   0  0  0  0  0  0  0  0  0  0  0  0
   26.6730    9.3590   21.6020 H   0  0  0  0  0  0  0  0  0  0  0  0
   30.4810   11.2110   20.9480 H   0  0  0  0  0  0  0  0  0  0  0  0
   27.2680   12.6230   18.8590 H   0  0  0  0  0  0  0  0  0  0  0  0
   30.6740    6.8660   23.8510 H   0  0  0  0  0  0  0  0  0  0  0  0
   29.8160    7.7480   25.1240 H   0  0  0  0  0  0  0  0  0  0  0  0
   31.3830    8.3320   24.5440 H   0  0  0  0  0  0  0  0  0  0  0  0
  1  2  1  0  0  0  0
  1 37  1  0  0  0  0
  1 38  1  0  0  0  0
  1 39  1  0  0  0  0
  2  3  1  0  0  0  0
  2 40  1  0  0  0  0
  2 41  1  0  0  0  0
  3  4  1  0  0  0  0
  3  8  1  0  0  0  0
  4  5  2  0  0  0  0
  4 42  1  0  0  0  0
  5  6  1  0  0  0  0
  5 11  1  0  0  0  0
  6  7  2  0  0  0  0
  6 43  1  0  0  0  0
  7  8  1  0  0  0  0
  7 10  1  0  0  0  0
  8  9  2  0  0  0  0
 10 44  1  0  0  0  0
 10 45  1  0  0  0  0
 10 46  1  0  0  0  0
 11 12  1  0  0  0  0
 11 19  1  0  0  0  0
 11 22  1  0  0  0  0
 12 13  1  0  0  0  0
 12 17  2  0  0  0  0
 13 14  2  0  0  0  0
 13 47  1  0  0  0  0
 14 15  1  0  0  0  0
 14 48  1  0  0  0  0
 15 16  2  0  0  0  0
 15 49  1  0  0  0  0
 16 17  1  0  0  0  0
 16 21  1  0  0  0  0
 17 18  1  0  0  0  0
 18 19  2  0  0  0  0
 18 20  1  0  0  0  0
 20 50  1  0  0  0  0
 20 51  1  0  0  0  0
 22 23  1  0  0  0  0
 22 27  2  0  0  0  0
 23 24  2  0  0  0  0
 23 52  1  0  0  0  0
 24 25  1  0  0  0  0
 24 53  1  0  0  0  0
 25 26  2  0  0  0  0
 25 54  1  0  0  0  0
 26 27  1  0  0  0  0
 26 28  1  0  0  0  0
 27 55  1  0  0  0  0
 28 29  1  0  0  0  0
 28 33  2  0  0  0  0
 29 30  2  0  0  0  0
 29 56  1  0  0  0  0
 30 31  1  0  0  0  0
 30 34  1  0  0  0  0
 31 32  2  0  0  0  0
 31 57  1  0  0  0  0
 32 33  1  0  0  0  0
 33 58  1  0  0  0  0
 34 35  3  0  0  0  0
 35 36  1  0  0  0  0
 36 59  1  0  0  0  0
 36 60  1  0  0  0  0
 36 61  1  0  0  0  0
M  END
>  <PARENT_CMPD_ID>
22924815_(R)-42

>  <STANDARD_TYPE>
IC50

>  <RELATION>
=

>  <STANDARD_VALUE>
2.5899999

>  <STANDARD_UNITS>
nM

>  <COMPOUND_KEY>
(R)-42

>  <PUBMED_ID>
22924815

>  <JOURNAL>
J.Med.Chem.

>  <YEAR>
2012

>  <VOLUME>
55

>  <FIRST_PAGE>
9346

>  <Company>
AstraZeneca

>  <idx>
300

>  <Model>
Valid

>  <target>
8.5867004

>  <des_pred_mlr>
7.7130799

>  <RF_Canvas>
7.9072952

>  <DNN_Canvas>
8.1338835

>  <pred_CoMFA>
9.5831003

>  <pred_COMSIA>
8.5532999

>  <pred_abm5>
8.5687609

>  <pred_ff8>
7.9096093

>  <pred_gau6>
8.5460157

>  <CID>
BACE_300

>  <active>
1

>  <des_class_bayes>
1

>  <maacs_class_bayes>
1

>  <radial_class_bayes>
1

>  <dend_class_bayes>
1

>  <molprint_class_bayes>
1

>  <RF_canvas>
1

>  <DNN_canvas>
1

$$$$
CHEMBL1915991
  MOE2015           3D

 98101  0  0  1  0  0  0  0  0999 V2000
   25.1250   20.4600   25.3770 C   0  0  0  0  0  0  0  0  0  0  0  0
   25.0110   21.5340   25.3990 H   0  0  0  0  0  0  0  0  0  0  0  0
   24.5530   19.6790   26.3820 C   0  0  0  0  0  0  0  0  0  0  0  0
   23.9970   20.1390   27.1860 H   0  0  0  0  0  0  0  0  0  0  0  0
   25.8500   19.8520   24.3350 C   0  0  0  0  0  0  0  0  0  0  0  0
   26.2880   20.4650   23.5610 H   0  0  0  0  0  0  0  0  0  0  0  0
   24.7120   18.2920   26.3300 C   0  0  0  0  0  0  0  0  0  0  0  0
   24.2700   17.6760   27.0990 H   0  0  0  0  0  0  0  0  0  0  0  0
   26.0110   18.4630   24.2890 C   0  0  0  0  0  0  0  0  0  0  0  0
   26.5700   17.9990   23.4900 H   0  0  0  0  0  0  0  0  0  0  0  0
   23.1870   11.8460   20.3250 C   0  0  0  0  0  0  0  0  0  0  0  0
   22.2260   12.1450   20.7180 H   0  0  0  0  0  0  0  0  0  0  0  0
   25.1040   10.4330   20.3920 C   0  0  0  0  0  0  0  0  0  0  0  0
   25.6580    9.6180   20.8340 H   0  0  0  0  0  0  0  0  0  0  0  0
   24.9360   12.1640   18.6930 C   0  0  0  0  0  0  0  0  0  0  0  0
   25.3360   12.6830   17.8350 H   0  0  0  0  0  0  0  0  0  0  0  0
   25.4350   17.6910   25.2960 C   0  0  0  0  0  0  0  0  0  0  0  0
   23.8700   10.7920   20.9260 C   0  0  0  0  0  0  0  0  0  0  0  0
   23.7120   12.5220   19.2320 C   0  0  0  0  0  0  0  0  0  0  0  0
   25.6390   11.1160   19.2860 C   0  0  0  0  0  0  0  0  0  0  0  0
   27.1750   13.4880   23.6660 C   0  0  0  0  0  0  0  0  0  0  0  0
   29.7210   15.1070   22.9300 C   0  0  0  0  0  0  0  0  0  0  0  0
   23.6640   13.1990   23.8080 C   0  0  0  0  0  0  0  0  0  0  0  0
   27.2350   14.1150   21.3400 C   0  0  0  0  0  0  0  0  0  0  0  0
   27.5580   15.1550   21.2900 H   0  0  0  0  0  0  0  0  0  0  0  0
   27.3370   13.6550   20.3570 H   0  0  0  0  0  0  0  0  0  0  0  0
   20.4890   11.9020   25.1990 C   0  0  0  0  0  0  0  0  0  0  0  0
   20.8500   12.9300   25.1550 H   0  0  0  0  0  0  0  0  0  0  0  0
   20.0890   11.6150   24.2260 H   0  0  0  0  0  0  0  0  0  0  0  0
   25.8080   13.9890   21.8800 C   0  0  0  0  0  0  0  0  0  0  0  0
   25.3190   13.1130   21.4530 H   0  0  0  0  0  0  0  0  0  0  0  0
   25.2320   14.8820   21.6350 H   0  0  0  0  0  0  0  0  0  0  0  0
   20.1540   11.0320   27.3770 C   0  0  0  0  0  0  0  0  0  0  0  0
   19.4610   10.5130   28.0390 H   0  0  0  0  0  0  0  0  0  0  0  0
   20.7690   11.7180   27.9600 H   0  0  0  0  0  0  0  0  0  0  0  0
   19.4070   11.7700   26.2720 C   0  0  3  0  0  0  0  0  0  0  0  0
   18.9590   12.7220   26.5570 H   0  0  0  0  0  0  0  0  0  0  0  0
   21.6380   10.9530   25.6010 C   0  0  3  0  0  0  0  0  0  0  0  0
   22.4980   11.5110   25.9720 H   0  0  0  0  0  0  0  0  0  0  0  0
   27.9980   13.3320   22.4170 C   0  0  3  0  0  0  0  0  0  0  0  0
   31.1870   15.4700   22.9610 C   0  0  0  0  0  0  0  0  0  0  0  0
   31.7790   14.6180   22.6270 H   0  0  0  0  0  0  0  0  0  0  0  0
   31.4740   15.7350   23.9780 H   0  0  0  0  0  0  0  0  0  0  0  0
   31.3650   16.3180   22.3000 H   0  0  0  0  0  0  0  0  0  0  0  0
   16.0490    9.3610   24.5570 C   0  0  0  0  0  0  0  0  0  0  0  0
   15.6890    8.8420   23.6690 H   0  0  0  0  0  0  0  0  0  0  0  0
   15.2230    9.5050   25.2530 H   0  0  0  0  0  0  0  0  0  0  0  0
   16.8280    8.7670   25.0350 H   0  0  0  0  0  0  0  0  0  0  0  0
   25.5880   16.1920   25.2840 C   0  0  0  0  0  0  0  0  0  0  0  0
   25.5430   15.8240   26.3090 H   0  0  0  0  0  0  0  0  0  0  0  0
   26.5550   15.9390   24.8500 H   0  0  0  0  0  0  0  0  0  0  0  0
   23.2770   10.0620   22.1220 C   0  0  0  0  0  0  0  0  0  0  0  0
   24.0490    9.4200   22.5450 H   0  0  0  0  0  0  0  0  0  0  0  0
   22.4480    9.4490   21.7690 H   0  0  0  0  0  0  0  0  0  0  0  0
   27.8650   11.8720   21.9640 C   0  0  3  0  0  0  0  0  0  0  0  0
   27.2960   11.8870   21.0340 H   0  0  0  0  0  0  0  0  0  0  0  0
   27.0440   10.9410   22.9910 C   0  0  0  0  0  0  0  0  0  0  0  0
   27.1830    9.4130   23.0730 C   0  0  0  0  0  0  0  0  0  0  0  0
   26.4120    9.0160   23.7430 H   0  0  0  0  0  0  0  0  0  0  0  0
   28.1500    9.1310   23.5040 H   0  0  0  0  0  0  0  0  0  0  0  0
   27.0700    8.9050   22.1150 H   0  0  0  0  0  0  0  0  0  0  0  0
   26.0080   11.1390   22.7680 H   0  0  0  0  0  0  0  0  0  0  0  0
   27.2440   11.2230   24.0230 H   0  0  0  0  0  0  0  0  0  0  0  0
   16.6220   10.7260   24.1550 C   0  0  0  0  0  0  0  0  0  0  0  0
   15.8370   11.3080   23.6720 H   0  0  0  0  0  0  0  0  0  0  0  0
   17.4420   10.5700   23.4540 H   0  0  0  0  0  0  0  0  0  0  0  0
   24.4840   15.5150   24.4650 C   0  0  0  0  0  0  0  0  0  0  0  0
   24.4070   15.9970   23.4900 H   0  0  0  0  0  0  0  0  0  0  0  0
   23.5340   15.6050   24.9910 H   0  0  0  0  0  0  0  0  0  0  0  0
   17.1490   11.5140   25.3650 C   0  0  0  0  0  0  0  0  0  0  0  0
   16.4130   11.4910   26.1690 H   0  0  0  0  0  0  0  0  0  0  0  0
   17.3390   12.5480   25.0770 H   0  0  0  0  0  0  0  0  0  0  0  0
   24.8240   14.0400   24.2780 C   0  0  3  0  0  0  0  0  0  0  0  0
   25.1090   13.7090   25.2770 H   0  0  0  0  0  0  0  0  0  0  0  0
   22.2260   10.1380   24.4290 C   0  0  3  0  0  0  0  0  0  0  0  0
   23.1120    9.6280   24.8060 H   0  0  0  0  0  0  0  0  0  0  0  0
   29.0960   11.0120   21.7030 C   0  0  0  0  0  0  0  0  0  0  0  0
   29.7880   11.0740   22.5430 H   0  0  0  0  0  0  0  0  0  0  0  0
   29.6680   11.3510   20.8390 H   0  0  0  0  0  0  0  0  0  0  0  0
   28.7150   10.0040   21.5410 H   0  0  0  0  0  0  0  0  0  0  0  0
   22.7500   10.9840   23.2440 C   0  0  3  0  0  0  0  0  0  0  0  0
   21.9310   11.5870   22.8520 H   0  0  0  0  0  0  0  0  0  0  0  0
   21.0040   10.0590   26.6180 N   0  3  0  0  0  0  0  0  0  0  0  0
   20.4440    9.3410   26.1810 H   0  0  0  0  0  0  0  0  0  0  0  0
   21.6960    9.6290   27.2150 H   0  0  0  0  0  0  0  0  0  0  0  0
   25.9260   13.8440   23.3410 N   0  0  0  0  0  0  0  0  0  0  0  0
   29.3680   13.8690   22.5250 N   0  0  0  0  0  0  0  0  0  0  0  0
   30.1200   13.2450   22.2690 H   0  0  0  0  0  0  0  0  0  0  0  0
   23.8270   11.8630   23.7040 N   0  0  0  0  0  0  0  0  0  0  0  0
   24.7190   11.4580   23.9510 H   0  0  0  0  0  0  0  0  0  0  0  0
   27.5680   13.2710   24.7900 O   0  0  0  0  0  0  0  0  0  0  0  0
   28.9360   15.9740   23.2820 O   0  0  0  0  0  0  0  0  0  0  0  0
   22.5950   13.7100   23.5250 O   0  0  0  0  0  0  0  0  0  0  0  0
   21.2320    9.2070   23.9900 O   0  0  0  0  0  0  0  0  0  0  0  0
   20.4810    9.7130   23.6710 H   0  0  0  0  0  0  0  0  0  0  0  0
   18.3730   10.8990   25.8080 O   0  0  0  0  0  0  0  0  0  0  0  0
   23.0210   13.5220   18.6820 F   0  0  0  0  0  0  0  0  0  0  0  0
   26.8390   10.7710   18.7780 F   0  0  0  0  0  0  0  0  0  0  0  0
  1  2  1  0  0  0  0
  1  3  2  0  0  0  0
  1  5  1  0  0  0  0
  3  4  1  0  0  0  0
  3  7  1  0  0  0  0
  5  6  1  0  0  0  0
  5  9  2  0  0  0  0
  7  8  1  0  0  0  0
  7 17  2  0  0  0  0
  9 10  1  0  0  0  0
  9 17  1  0  0  0  0
 11 12  1  0  0  0  0
 11 18  2  0  0  0  0
 11 19  1  0  0  0  0
 13 14  1  0  0  0  0
 13 18  1  0  0  0  0
 13 20  2  0  0  0  0
 15 16  1  0  0  0  0
 15 19  2  0  0  0  0
 15 20  1  0  0  0  0
 17 49  1  0  0  0  0
 18 52  1  0  0  0  0
 19 97  1  0  0  0  0
 20 98  1  0  0  0  0
 21 40  1  0  0  0  0
 21 86  1  0  0  0  0
 21 91  2  0  0  0  0
 22 41  1  0  0  0  0
 22 87  1  0  0  0  0
 22 92  2  0  0  0  0
 23 73  1  0  0  0  0
 23 89  1  0  0  0  0
 23 93  2  0  0  0  0
 24 25  1  0  0  0  0
 24 26  1  0  0  0  0
 24 30  1  0  0  0  0
 24 40  1  0  0  0  0
 27 28  1  0  0  0  0
 27 29  1  0  0  0  0
 27 36  1  0  0  0  0
 27 38  1  0  0  0  0
 30 31  1  0  0  0  0
 30 32  1  0  0  0  0
 30 86  1  0  0  0  0
 33 34  1  0  0  0  0
 33 35  1  0  0  0  0
 33 36  1  0  0  0  0
 33 83  1  0  0  0  0
 36 37  1  0  0  0  0
 36 96  1  0  0  0  0
 38 39  1  0  0  0  0
 38 75  1  0  0  0  0
 38 83  1  0  0  0  0
 40 55  1  0  0  0  0
 40 87  1  0  0  0  0
 41 42  1  0  0  0  0
 41 43  1  0  0  0  0
 41 44  1  0  0  0  0
 45 46  1  0  0  0  0
 45 47  1  0  0  0  0
 45 48  1  0  0  0  0
 45 64  1  0  0  0  0
 49 50  1  0  0  0  0
 49 51  1  0  0  0  0
 49 67  1  0  0  0  0
 52 53  1  0  0  0  0
 52 54  1  0  0  0  0
 52 81  1  0  0  0  0
 55 56  1  0  0  0  0
 55 57  1  0  0  0  0
 55 77  1  0  0  0  0
 57 58  1  0  0  0  0
 57 62  1  0  0  0  0
 57 63  1  0  0  0  0
 58 59  1  0  0  0  0
 58 60  1  0  0  0  0
 58 61  1  0  0  0  0
 64 65  1  0  0  0  0
 64 66  1  0  0  0  0
 64 70  1  0  0  0  0
 67 68  1  0  0  0  0
 67 69  1  0  0  0  0
 67 73  1  0  0  0  0
 70 71  1  0  0  0  0
 70 72  1  0  0  0  0
 70 96  1  0  0  0  0
 73 74  1  0  0  0  0
 73 86  1  0  0  0  0
 75 76  1  0  0  0  0
 75 81  1  0  0  0  0
 75 94  1  0  0  0  0
 77 78  1  0  0  0  0
 77 79  1  0  0  0  0
 77 80  1  0  0  0  0
 81 82  1  0  0  0  0
 81 89  1  0  0  0  0
 83 84  1  0  0  0  0
 83 85  1  0  0  0  0
 87 88  1  0  0  0  0
 89 90  1  0  0  0  0
 94 95  1  0  0  0  0
M  CHG  1  83   1
M  END
>  <PARENT_CMPD_ID>
CHEMBL1915991

>  <STANDARD_TYPE>
IC50

>  <RELATION>
=

>  <STANDARD_VALUE>
2.5999999

>  <STANDARD_UNITS>
nM

>  <COMPOUND_KEY>
28b

>  <PUBMED_ID>
21782431

>  <JOURNAL>
Bioorg.Med.Chem.Lett.

>  <YEAR>
2011

>  <VOLUME>
21

>  <FIRST_PAGE>
6916

>  <Company>
BMS

>  <idx>
301

>  <Model>
Valid

>  <target>
8.5850267

>  <des_pred_mlr>
7.4614801

>  <RF_Canvas>
8.2272749

>  <DNN_Canvas>
7.9943442

>  <pred_CoMFA>
9.0176001

>  <pred_COMSIA>
8.8246002

>  <pred_abm5>
9.1405725

>  <pred_ff8>
6.9908118

>  <pred_gau6>
8.9864292

>  <CID>
BACE_301

>  <active>
1

>  <des_class_bayes>
1

>  <maacs_class_bayes>
1

>  <radial_class_bayes>
0

>  <dend_class_bayes>
1

>  <molprint_class_bayes>
1

>  <RF_canvas>
1

>  <DNN_canvas>
1

$$$$
CHEMBL1916157
  MOE2015           3D

 99103  0  0  1  0  0  0  0  0999 V2000
   25.1250   20.4600   25.3770 C   0  0  0  0  0  0  0  0  0  0  0  0
   25.0110   21.5340   25.3990 H   0  0  0  0  0  0  0  0  0  0  0  0
   24.5530   19.6790   26.3820 C   0  0  0  0  0  0  0  0  0  0  0  0
   23.9970   20.1390   27.1860 H   0  0  0  0  0  0  0  0  0  0  0  0
   25.8500   19.8520   24.3350 C   0  0  0  0  0  0  0  0  0  0  0  0
   23.1870   11.8460   20.3250 C   0  0  0  0  0  0  0  0  0  0  0  0
   26.2880   20.4650   23.5610 H   0  0  0  0  0  0  0  0  0  0  0  0
   22.2260   12.1450   20.7180 H   0  0  0  0  0  0  0  0  0  0  0  0
   25.1040   10.4330   20.3920 C   0  0  0  0  0  0  0  0  0  0  0  0
   24.7120   18.2920   26.3300 C   0  0  0  0  0  0  0  0  0  0  0  0
   25.6580    9.6180   20.8340 H   0  0  0  0  0  0  0  0  0  0  0  0
   24.9360   12.1640   18.6930 C   0  0  0  0  0  0  0  0  0  0  0  0
   24.2700   17.6760   27.0990 H   0  0  0  0  0  0  0  0  0  0  0  0
   25.3360   12.6830   17.8350 H   0  0  0  0  0  0  0  0  0  0  0  0
   26.0110   18.4630   24.2890 C   0  0  0  0  0  0  0  0  0  0  0  0
   23.8700   10.7920   20.9260 C   0  0  0  0  0  0  0  0  0  0  0  0
   23.7120   12.5220   19.2320 C   0  0  0  0  0  0  0  0  0  0  0  0
   26.5700   17.9990   23.4900 H   0  0  0  0  0  0  0  0  0  0  0  0
   25.6390   11.1160   19.2860 C   0  0  0  0  0  0  0  0  0  0  0  0
   27.1750   13.4880   23.6660 C   0  0  0  0  0  0  0  0  0  0  0  0
   29.7210   15.1070   22.9300 C   0  0  0  0  0  0  0  0  0  0  0  0
   23.6640   13.1990   23.8080 C   0  0  0  0  0  0  0  0  0  0  0  0
   27.2350   14.1150   21.3400 C   0  0  0  0  0  0  0  0  0  0  0  0
   27.5580   15.1550   21.2900 H   0  0  0  0  0  0  0  0  0  0  0  0
   27.3370   13.6550   20.3570 H   0  0  0  0  0  0  0  0  0  0  0  0
   20.4890   11.9020   25.1990 C   0  0  0  0  0  0  0  0  0  0  0  0
   25.4350   17.6910   25.2960 C   0  0  0  0  0  0  0  0  0  0  0  0
   20.8500   12.9300   25.1550 H   0  0  0  0  0  0  0  0  0  0  0  0
   20.0890   11.6150   24.2260 H   0  0  0  0  0  0  0  0  0  0  0  0
   25.8080   13.9890   21.8800 C   0  0  0  0  0  0  0  0  0  0  0  0
   25.3190   13.1130   21.4530 H   0  0  0  0  0  0  0  0  0  0  0  0
   25.2320   14.8820   21.6350 H   0  0  0  0  0  0  0  0  0  0  0  0
   20.1540   11.0320   27.3770 C   0  0  0  0  0  0  0  0  0  0  0  0
   19.4610   10.5130   28.0390 H   0  0  0  0  0  0  0  0  0  0  0  0
   20.7690   11.7180   27.9600 H   0  0  0  0  0  0  0  0  0  0  0  0
   19.4070   11.7700   26.2720 C   0  0  3  0  0  0  0  0  0  0  0  0
   18.9590   12.7220   26.5570 H   0  0  0  0  0  0  0  0  0  0  0  0
   21.6380   10.9530   25.6010 C   0  0  3  0  0  0  0  0  0  0  0  0
   22.4980   11.5110   25.9720 H   0  0  0  0  0  0  0  0  0  0  0  0
   27.9980   13.3320   22.4170 C   0  0  3  0  0  0  0  0  0  0  0  0
   31.1870   15.4700   22.9610 C   0  0  0  0  0  0  0  0  0  0  0  0
   31.7790   14.6180   22.6270 H   0  0  0  0  0  0  0  0  0  0  0  0
   31.4740   15.7350   23.9780 H   0  0  0  0  0  0  0  0  0  0  0  0
   31.3650   16.3180   22.3000 H   0  0  0  0  0  0  0  0  0  0  0  0
   23.2770   10.0620   22.1220 C   0  0  0  0  0  0  0  0  0  0  0  0
   24.0490    9.4200   22.5450 H   0  0  0  0  0  0  0  0  0  0  0  0
   22.4480    9.4490   21.7690 H   0  0  0  0  0  0  0  0  0  0  0  0
   27.8650   11.8720   21.9640 C   0  0  3  0  0  0  0  0  0  0  0  0
   27.0780   11.8930   20.6780 C   0  0  0  0  0  0  0  0  0  0  0  0
   26.9540   10.8740   20.3110 H   0  0  0  0  0  0  0  0  0  0  0  0
   27.8170   12.7110   19.6490 C   0  0  0  0  0  0  0  0  0  0  0  0
   27.2490   12.7260   18.7200 H   0  0  0  0  0  0  0  0  0  0  0  0
   28.7970   12.2680   19.4690 H   0  0  0  0  0  0  0  0  0  0  0  0
   25.5880   16.1920   25.2840 C   0  0  0  0  0  0  0  0  0  0  0  0
   27.9410   13.7300   20.0160 H   0  0  0  0  0  0  0  0  0  0  0  0
   26.0980   12.3350   20.8580 H   0  0  0  0  0  0  0  0  0  0  0  0
   25.5430   15.8240   26.3090 H   0  0  0  0  0  0  0  0  0  0  0  0
   27.2880   11.3610   22.7350 H   0  0  0  0  0  0  0  0  0  0  0  0
   26.5550   15.9390   24.8500 H   0  0  0  0  0  0  0  0  0  0  0  0
   24.4840   15.5150   24.4650 C   0  0  0  0  0  0  0  0  0  0  0  0
   24.4070   15.9970   23.4900 H   0  0  0  0  0  0  0  0  0  0  0  0
   23.5340   15.6050   24.9910 H   0  0  0  0  0  0  0  0  0  0  0  0
   24.8240   14.0400   24.2780 C   0  0  3  0  0  0  0  0  0  0  0  0
   25.1090   13.7090   25.2770 H   0  0  0  0  0  0  0  0  0  0  0  0
   22.2260   10.1380   24.4290 C   0  0  3  0  0  0  0  0  0  0  0  0
   23.1120    9.6280   24.8060 H   0  0  0  0  0  0  0  0  0  0  0  0
   29.0960   11.0120   21.7030 C   0  0  0  0  0  0  0  0  0  0  0  0
   29.7880   11.0740   22.5430 H   0  0  0  0  0  0  0  0  0  0  0  0
   29.6680   11.3510   20.8390 H   0  0  0  0  0  0  0  0  0  0  0  0
   28.7150   10.0040   21.5410 H   0  0  0  0  0  0  0  0  0  0  0  0
   22.7500   10.9840   23.2440 C   0  0  3  0  0  0  0  0  0  0  0  0
   21.9310   11.5870   22.8520 H   0  0  0  0  0  0  0  0  0  0  0  0
   21.0040   10.0590   26.6180 N   0  3  0  0  0  0  0  0  0  0  0  0
   20.4440    9.3410   26.1810 H   0  0  0  0  0  0  0  0  0  0  0  0
   21.6960    9.6290   27.2150 H   0  0  0  0  0  0  0  0  0  0  0  0
   25.9260   13.8440   23.3410 N   0  0  0  0  0  0  0  0  0  0  0  0
   29.3680   13.8690   22.5250 N   0  0  0  0  0  0  0  0  0  0  0  0
   30.1200   13.2450   22.2690 H   0  0  0  0  0  0  0  0  0  0  0  0
   23.8270   11.8630   23.7040 N   0  0  0  0  0  0  0  0  0  0  0  0
   24.7190   11.4580   23.9510 H   0  0  0  0  0  0  0  0  0  0  0  0
   27.5680   13.2710   24.7900 O   0  0  0  0  0  0  0  0  0  0  0  0
   28.9360   15.9740   23.2820 O   0  0  0  0  0  0  0  0  0  0  0  0
   22.5950   13.7100   23.5250 O   0  0  0  0  0  0  0  0  0  0  0  0
   21.2320    9.2070   23.9900 O   0  0  0  0  0  0  0  0  0  0  0  0
   20.4810    9.7130   23.6710 H   0  0  0  0  0  0  0  0  0  0  0  0
   18.3920   10.8640   25.7970 O   0  0  0  0  0  0  0  0  0  0  0  0
   23.0210   13.5220   18.6820 F   0  0  0  0  0  0  0  0  0  0  0  0
   26.8390   10.7710   18.7780 F   0  0  0  0  0  0  0  0  0  0  0  0
   14.8990   12.2780   24.0200 C   0  0  0  0  0  0  0  0  0  0  0  0
   13.9720   12.6200   23.5660 H   0  0  0  0  0  0  0  0  0  0  0  0
   14.9740   11.0050   24.5810 C   0  0  0  0  0  0  0  0  0  0  0  0
   14.1060   10.3520   24.5660 H   0  0  0  0  0  0  0  0  0  0  0  0
   16.1670   10.5700   25.1630 C   0  0  0  0  0  0  0  0  0  0  0  0
   16.2150    9.5760   25.5980 H   0  0  0  0  0  0  0  0  0  0  0  0
   17.2860   11.4070   25.2000 C   0  0  0  0  0  0  0  0  0  0  0  0
   17.2110   12.6750   24.6210 C   0  0  0  0  0  0  0  0  0  0  0  0
   18.0620   13.3480   24.5940 H   0  0  0  0  0  0  0  0  0  0  0  0
   16.0180   13.1090   24.0360 C   0  0  0  0  0  0  0  0  0  0  0  0
   15.9590   14.0990   23.5880 H   0  0  0  0  0  0  0  0  0  0  0  0
  1  2  1  0  0  0  0
  1  3  2  0  0  0  0
  1  5  1  0  0  0  0
  3  4  1  0  0  0  0
  3 10  1  0  0  0  0
  5  7  1  0  0  0  0
  5 15  2  0  0  0  0
  6  8  1  0  0  0  0
  6 16  2  0  0  0  0
  6 17  1  0  0  0  0
  9 11  1  0  0  0  0
  9 16  1  0  0  0  0
  9 19  2  0  0  0  0
 10 13  1  0  0  0  0
 10 27  2  0  0  0  0
 12 14  1  0  0  0  0
 12 17  2  0  0  0  0
 12 19  1  0  0  0  0
 15 18  1  0  0  0  0
 15 27  1  0  0  0  0
 16 45  1  0  0  0  0
 17 87  1  0  0  0  0
 19 88  1  0  0  0  0
 20 40  1  0  0  0  0
 20 76  1  0  0  0  0
 20 81  2  0  0  0  0
 21 41  1  0  0  0  0
 21 77  1  0  0  0  0
 21 82  2  0  0  0  0
 22 63  1  0  0  0  0
 22 79  1  0  0  0  0
 22 83  2  0  0  0  0
 23 24  1  0  0  0  0
 23 25  1  0  0  0  0
 23 30  1  0  0  0  0
 23 40  1  0  0  0  0
 26 28  1  0  0  0  0
 26 29  1  0  0  0  0
 26 36  1  0  0  0  0
 26 38  1  0  0  0  0
 27 54  1  0  0  0  0
 30 31  1  0  0  0  0
 30 32  1  0  0  0  0
 30 76  1  0  0  0  0
 33 34  1  0  0  0  0
 33 35  1  0  0  0  0
 33 36  1  0  0  0  0
 33 73  1  0  0  0  0
 36 37  1  0  0  0  0
 36 86  1  0  0  0  0
 38 39  1  0  0  0  0
 38 65  1  0  0  0  0
 38 73  1  0  0  0  0
 40 48  1  0  0  0  0
 40 77  1  0  0  0  0
 41 42  1  0  0  0  0
 41 43  1  0  0  0  0
 41 44  1  0  0  0  0
 45 46  1  0  0  0  0
 45 47  1  0  0  0  0
 45 71  1  0  0  0  0
 48 49  1  0  0  0  0
 48 58  1  0  0  0  0
 48 67  1  0  0  0  0
 49 50  1  0  0  0  0
 49 51  1  0  0  0  0
 49 56  1  0  0  0  0
 51 52  1  0  0  0  0
 51 53  1  0  0  0  0
 51 55  1  0  0  0  0
 54 57  1  0  0  0  0
 54 59  1  0  0  0  0
 54 60  1  0  0  0  0
 60 61  1  0  0  0  0
 60 62  1  0  0  0  0
 60 63  1  0  0  0  0
 63 64  1  0  0  0  0
 63 76  1  0  0  0  0
 65 66  1  0  0  0  0
 65 71  1  0  0  0  0
 65 84  1  0  0  0  0
 67 68  1  0  0  0  0
 67 69  1  0  0  0  0
 67 70  1  0  0  0  0
 71 72  1  0  0  0  0
 71 79  1  0  0  0  0
 73 74  1  0  0  0  0
 73 75  1  0  0  0  0
 77 78  1  0  0  0  0
 79 80  1  0  0  0  0
 84 85  1  0  0  0  0
 86 95  1  0  0  0  0
 89 90  1  0  0  0  0
 89 91  1  0  0  0  0
 89 98  2  0  0  0  0
 91 92  1  0  0  0  0
 91 93  2  0  0  0  0
 93 94  1  0  0  0  0
 93 95  1  0  0  0  0
 95 96  2  0  0  0  0
 96 97  1  0  0  0  0
 96 98  1  0  0  0  0
 98 99  1  0  0  0  0
M  CHG  1  73   1
M  END
>  <PARENT_CMPD_ID>
CHEMBL1916157

>  <STANDARD_TYPE>
IC50

>  <RELATION>
=

>  <STANDARD_VALUE>
2.5999999

>  <STANDARD_UNITS>
nM

>  <COMPOUND_KEY>
28t

>  <PUBMED_ID>
21782431

>  <JOURNAL>
Bioorg.Med.Chem.Lett.

>  <YEAR>
2011

>  <VOLUME>
21

>  <FIRST_PAGE>
6916

>  <Company>
BMS

>  <idx>
302

>  <Model>
Valid

>  <target>
8.5850267

>  <des_pred_mlr>
7.84237

>  <RF_Canvas>
7.8775249

>  <DNN_Canvas>
8.0517902

>  <pred_CoMFA>
9.1885996

>  <pred_COMSIA>
9.0060997

>  <pred_abm5>
9.256362

>  <pred_ff8>
8.1605816

>  <pred_gau6>
9.5553293

>  <CID>
BACE_302

>  <active>
1

>  <des_class_bayes>
1

>  <maacs_class_bayes>
1

>  <radial_class_bayes>
0

>  <dend_class_bayes>
1

>  <molprint_class_bayes>
1

>  <RF_canvas>
1

>  <DNN_canvas>
1

$$$$
CHEMBL1916158
  MOE2015           3D

 98102  0  0  1  0  0  0  0  0999 V2000
   25.1250   20.4600   25.3770 C   0  0  0  0  0  0  0  0  0  0  0  0
   25.0110   21.5340   25.3990 H   0  0  0  0  0  0  0  0  0  0  0  0
   24.5530   19.6790   26.3820 C   0  0  0  0  0  0  0  0  0  0  0  0
   23.9970   20.1390   27.1860 H   0  0  0  0  0  0  0  0  0  0  0  0
   25.8500   19.8520   24.3350 C   0  0  0  0  0  0  0  0  0  0  0  0
   23.1870   11.8460   20.3250 C   0  0  0  0  0  0  0  0  0  0  0  0
   26.2880   20.4650   23.5610 H   0  0  0  0  0  0  0  0  0  0  0  0
   22.2260   12.1450   20.7180 H   0  0  0  0  0  0  0  0  0  0  0  0
   25.1040   10.4330   20.3920 C   0  0  0  0  0  0  0  0  0  0  0  0
   24.7120   18.2920   26.3300 C   0  0  0  0  0  0  0  0  0  0  0  0
   25.6580    9.6180   20.8340 H   0  0  0  0  0  0  0  0  0  0  0  0
   24.9360   12.1640   18.6930 C   0  0  0  0  0  0  0  0  0  0  0  0
   24.2700   17.6760   27.0990 H   0  0  0  0  0  0  0  0  0  0  0  0
   25.3360   12.6830   17.8350 H   0  0  0  0  0  0  0  0  0  0  0  0
   26.0110   18.4630   24.2890 C   0  0  0  0  0  0  0  0  0  0  0  0
   23.8700   10.7920   20.9260 C   0  0  0  0  0  0  0  0  0  0  0  0
   23.7120   12.5220   19.2320 C   0  0  0  0  0  0  0  0  0  0  0  0
   26.5700   17.9990   23.4900 H   0  0  0  0  0  0  0  0  0  0  0  0
   25.6390   11.1160   19.2860 C   0  0  0  0  0  0  0  0  0  0  0  0
   27.1750   13.4880   23.6660 C   0  0  0  0  0  0  0  0  0  0  0  0
   29.7210   15.1070   22.9300 C   0  0  0  0  0  0  0  0  0  0  0  0
   23.6640   13.1990   23.8080 C   0  0  0  0  0  0  0  0  0  0  0  0
   27.2350   14.1150   21.3400 C   0  0  0  0  0  0  0  0  0  0  0  0
   27.5580   15.1550   21.2900 H   0  0  0  0  0  0  0  0  0  0  0  0
   27.3370   13.6550   20.3570 H   0  0  0  0  0  0  0  0  0  0  0  0
   20.4890   11.9020   25.1990 C   0  0  0  0  0  0  0  0  0  0  0  0
   25.4350   17.6910   25.2960 C   0  0  0  0  0  0  0  0  0  0  0  0
   20.8500   12.9300   25.1550 H   0  0  0  0  0  0  0  0  0  0  0  0
   20.0890   11.6150   24.2260 H   0  0  0  0  0  0  0  0  0  0  0  0
   25.8080   13.9890   21.8800 C   0  0  0  0  0  0  0  0  0  0  0  0
   25.3190   13.1130   21.4530 H   0  0  0  0  0  0  0  0  0  0  0  0
   25.2320   14.8820   21.6350 H   0  0  0  0  0  0  0  0  0  0  0  0
   20.1540   11.0320   27.3770 C   0  0  0  0  0  0  0  0  0  0  0  0
   19.4610   10.5130   28.0390 H   0  0  0  0  0  0  0  0  0  0  0  0
   20.7690   11.7180   27.9600 H   0  0  0  0  0  0  0  0  0  0  0  0
   19.4070   11.7700   26.2720 C   0  0  3  0  0  0  0  0  0  0  0  0
   18.9590   12.7220   26.5570 H   0  0  0  0  0  0  0  0  0  0  0  0
   21.6380   10.9530   25.6010 C   0  0  3  0  0  0  0  0  0  0  0  0
   22.4980   11.5110   25.9720 H   0  0  0  0  0  0  0  0  0  0  0  0
   27.9980   13.3320   22.4170 C   0  0  3  0  0  0  0  0  0  0  0  0
   31.1870   15.4700   22.9610 C   0  0  0  0  0  0  0  0  0  0  0  0
   31.7790   14.6180   22.6270 H   0  0  0  0  0  0  0  0  0  0  0  0
   31.4740   15.7350   23.9780 H   0  0  0  0  0  0  0  0  0  0  0  0
   31.3650   16.3180   22.3000 H   0  0  0  0  0  0  0  0  0  0  0  0
   23.2770   10.0620   22.1220 C   0  0  0  0  0  0  0  0  0  0  0  0
   24.0490    9.4200   22.5450 H   0  0  0  0  0  0  0  0  0  0  0  0
   22.4480    9.4490   21.7690 H   0  0  0  0  0  0  0  0  0  0  0  0
   27.8650   11.8720   21.9640 C   0  0  3  0  0  0  0  0  0  0  0  0
   27.0780   11.8930   20.6780 C   0  0  0  0  0  0  0  0  0  0  0  0
   26.9540   10.8740   20.3110 H   0  0  0  0  0  0  0  0  0  0  0  0
   27.8170   12.7110   19.6490 C   0  0  0  0  0  0  0  0  0  0  0  0
   27.2490   12.7260   18.7200 H   0  0  0  0  0  0  0  0  0  0  0  0
   28.7970   12.2680   19.4690 H   0  0  0  0  0  0  0  0  0  0  0  0
   25.5880   16.1920   25.2840 C   0  0  0  0  0  0  0  0  0  0  0  0
   27.9410   13.7300   20.0160 H   0  0  0  0  0  0  0  0  0  0  0  0
   26.0980   12.3350   20.8580 H   0  0  0  0  0  0  0  0  0  0  0  0
   25.5430   15.8240   26.3090 H   0  0  0  0  0  0  0  0  0  0  0  0
   27.2880   11.3610   22.7350 H   0  0  0  0  0  0  0  0  0  0  0  0
   26.5550   15.9390   24.8500 H   0  0  0  0  0  0  0  0  0  0  0  0
   24.4840   15.5150   24.4650 C   0  0  0  0  0  0  0  0  0  0  0  0
   24.4070   15.9970   23.4900 H   0  0  0  0  0  0  0  0  0  0  0  0
   23.5340   15.6050   24.9910 H   0  0  0  0  0  0  0  0  0  0  0  0
   24.8240   14.0400   24.2780 C   0  0  3  0  0  0  0  0  0  0  0  0
   25.1090   13.7090   25.2770 H   0  0  0  0  0  0  0  0  0  0  0  0
   22.2260   10.1380   24.4290 C   0  0  3  0  0  0  0  0  0  0  0  0
   23.1120    9.6280   24.8060 H   0  0  0  0  0  0  0  0  0  0  0  0
   29.0960   11.0120   21.7030 C   0  0  0  0  0  0  0  0  0  0  0  0
   29.7880   11.0740   22.5430 H   0  0  0  0  0  0  0  0  0  0  0  0
   29.6680   11.3510   20.8390 H   0  0  0  0  0  0  0  0  0  0  0  0
   28.7150   10.0040   21.5410 H   0  0  0  0  0  0  0  0  0  0  0  0
   22.7500   10.9840   23.2440 C   0  0  3  0  0  0  0  0  0  0  0  0
   21.9310   11.5870   22.8520 H   0  0  0  0  0  0  0  0  0  0  0  0
   21.0040   10.0590   26.6180 N   0  3  0  0  0  0  0  0  0  0  0  0
   20.4440    9.3410   26.1810 H   0  0  0  0  0  0  0  0  0  0  0  0
   21.6960    9.6290   27.2150 H   0  0  0  0  0  0  0  0  0  0  0  0
   25.9260   13.8440   23.3410 N   0  0  0  0  0  0  0  0  0  0  0  0
   29.3680   13.8690   22.5250 N   0  0  0  0  0  0  0  0  0  0  0  0
   30.1200   13.2450   22.2690 H   0  0  0  0  0  0  0  0  0  0  0  0
   23.8270   11.8630   23.7040 N   0  0  0  0  0  0  0  0  0  0  0  0
   24.7190   11.4580   23.9510 H   0  0  0  0  0  0  0  0  0  0  0  0
   27.5680   13.2710   24.7900 O   0  0  0  0  0  0  0  0  0  0  0  0
   28.9360   15.9740   23.2820 O   0  0  0  0  0  0  0  0  0  0  0  0
   22.5950   13.7100   23.5250 O   0  0  0  0  0  0  0  0  0  0  0  0
   21.2320    9.2070   23.9900 O   0  0  0  0  0  0  0  0  0  0  0  0
   20.4810    9.7130   23.6710 H   0  0  0  0  0  0  0  0  0  0  0  0
   18.3920   10.8640   25.7970 O   0  0  0  0  0  0  0  0  0  0  0  0
   23.0210   13.5220   18.6820 F   0  0  0  0  0  0  0  0  0  0  0  0
   26.8390   10.7710   18.7780 F   0  0  0  0  0  0  0  0  0  0  0  0
   14.8990   12.2780   24.0200 C   0  0  0  0  0  0  0  0  0  0  0  0
   13.9720   12.6200   23.5660 H   0  0  0  0  0  0  0  0  0  0  0  0
   14.9740   11.0050   24.5810 C   0  0  0  0  0  0  0  0  0  0  0  0
   14.1060   10.3520   24.5660 H   0  0  0  0  0  0  0  0  0  0  0  0
   16.1670   10.5700   25.1630 N   0  0  0  0  0  0  0  0  0  0  0  0
   17.2860   11.4070   25.2000 C   0  0  0  0  0  0  0  0  0  0  0  0
   17.2110   12.6750   24.6210 C   0  0  0  0  0  0  0  0  0  0  0  0
   18.0620   13.3480   24.5940 H   0  0  0  0  0  0  0  0  0  0  0  0
   16.0180   13.1090   24.0360 C   0  0  0  0  0  0  0  0  0  0  0  0
   15.9590   14.0990   23.5880 H   0  0  0  0  0  0  0  0  0  0  0  0
  1  2  1  0  0  0  0
  1  3  2  0  0  0  0
  1  5  1  0  0  0  0
  3  4  1  0  0  0  0
  3 10  1  0  0  0  0
  5  7  1  0  0  0  0
  5 15  2  0  0  0  0
  6  8  1  0  0  0  0
  6 16  2  0  0  0  0
  6 17  1  0  0  0  0
  9 11  1  0  0  0  0
  9 16  1  0  0  0  0
  9 19  2  0  0  0  0
 10 13  1  0  0  0  0
 10 27  2  0  0  0  0
 12 14  1  0  0  0  0
 12 17  2  0  0  0  0
 12 19  1  0  0  0  0
 15 18  1  0  0  0  0
 15 27  1  0  0  0  0
 16 45  1  0  0  0  0
 17 87  1  0  0  0  0
 19 88  1  0  0  0  0
 20 40  1  0  0  0  0
 20 76  1  0  0  0  0
 20 81  2  0  0  0  0
 21 41  1  0  0  0  0
 21 77  1  0  0  0  0
 21 82  2  0  0  0  0
 22 63  1  0  0  0  0
 22 79  1  0  0  0  0
 22 83  2  0  0  0  0
 23 24  1  0  0  0  0
 23 25  1  0  0  0  0
 23 30  1  0  0  0  0
 23 40  1  0  0  0  0
 26 28  1  0  0  0  0
 26 29  1  0  0  0  0
 26 36  1  0  0  0  0
 26 38  1  0  0  0  0
 27 54  1  0  0  0  0
 30 31  1  0  0  0  0
 30 32  1  0  0  0  0
 30 76  1  0  0  0  0
 33 34  1  0  0  0  0
 33 35  1  0  0  0  0
 33 36  1  0  0  0  0
 33 73  1  0  0  0  0
 36 37  1  0  0  0  0
 36 86  1  0  0  0  0
 38 39  1  0  0  0  0
 38 65  1  0  0  0  0
 38 73  1  0  0  0  0
 40 48  1  0  0  0  0
 40 77  1  0  0  0  0
 41 42  1  0  0  0  0
 41 43  1  0  0  0  0
 41 44  1  0  0  0  0
 45 46  1  0  0  0  0
 45 47  1  0  0  0  0
 45 71  1  0  0  0  0
 48 49  1  0  0  0  0
 48 58  1  0  0  0  0
 48 67  1  0  0  0  0
 49 50  1  0  0  0  0
 49 51  1  0  0  0  0
 49 56  1  0  0  0  0
 51 52  1  0  0  0  0
 51 53  1  0  0  0  0
 51 55  1  0  0  0  0
 54 57  1  0  0  0  0
 54 59  1  0  0  0  0
 54 60  1  0  0  0  0
 60 61  1  0  0  0  0
 60 62  1  0  0  0  0
 60 63  1  0  0  0  0
 63 64  1  0  0  0  0
 63 76  1  0  0  0  0
 65 66  1  0  0  0  0
 65 71  1  0  0  0  0
 65 84  1  0  0  0  0
 67 68  1  0  0  0  0
 67 69  1  0  0  0  0
 67 70  1  0  0  0  0
 71 72  1  0  0  0  0
 71 79  1  0  0  0  0
 73 74  1  0  0  0  0
 73 75  1  0  0  0  0
 77 78  1  0  0  0  0
 79 80  1  0  0  0  0
 84 85  1  0  0  0  0
 86 94  1  0  0  0  0
 89 90  1  0  0  0  0
 89 91  1  0  0  0  0
 89 97  2  0  0  0  0
 91 92  1  0  0  0  0
 91 93  2  0  0  0  0
 93 94  1  0  0  0  0
 94 95  2  0  0  0  0
 95 96  1  0  0  0  0
 95 97  1  0  0  0  0
 97 98  1  0  0  0  0
M  CHG  1  73   1
M  END
>  <PARENT_CMPD_ID>
CHEMBL1916158

>  <STANDARD_TYPE>
IC50

>  <RELATION>
=

>  <STANDARD_VALUE>
2.5999999

>  <STANDARD_UNITS>
nM

>  <COMPOUND_KEY>
28u

>  <PUBMED_ID>
21782431

>  <JOURNAL>
Bioorg.Med.Chem.Lett.

>  <YEAR>
2011

>  <VOLUME>
21

>  <FIRST_PAGE>
6916

>  <Company>
BMS

>  <idx>
303

>  <Model>
Valid

>  <target>
8.5850267

>  <des_pred_mlr>
7.6995401

>  <RF_Canvas>
7.8522921

>  <DNN_Canvas>
8.1459999

>  <pred_CoMFA>
9.1251001

>  <pred_COMSIA>
8.9232998

>  <pred_abm5>
9.0896254

>  <pred_ff8>
7.9639125

>  <pred_gau6>
9.3632803

>  <CID>
BACE_303

>  <active>
1

>  <des_class_bayes>
1

>  <maacs_class_bayes>
1

>  <radial_class_bayes>
0

>  <dend_class_bayes>
1

>  <molprint_class_bayes>
1

>  <RF_canvas>
1

>  <DNN_canvas>
1

$$$$
CHEMBL1916166
  MOE2015           3D

105109  0  0  1  0  0  0  0  0999 V2000
   25.1250   20.4600   25.3770 C   0  0  0  0  0  0  0  0  0  0  0  0
   25.0110   21.5340   25.3990 H   0  0  0  0  0  0  0  0  0  0  0  0
   24.5530   19.6790   26.3820 C   0  0  0  0  0  0  0  0  0  0  0  0
   23.9970   20.1390   27.1860 H   0  0  0  0  0  0  0  0  0  0  0  0
   25.8500   19.8520   24.3350 C   0  0  0  0  0  0  0  0  0  0  0  0
   23.1870   11.8460   20.3250 C   0  0  0  0  0  0  0  0  0  0  0  0
   26.2880   20.4650   23.5610 H   0  0  0  0  0  0  0  0  0  0  0  0
   22.2260   12.1450   20.7180 H   0  0  0  0  0  0  0  0  0  0  0  0
   25.1040   10.4330   20.3920 C   0  0  0  0  0  0  0  0  0  0  0  0
   24.7120   18.2920   26.3300 C   0  0  0  0  0  0  0  0  0  0  0  0
   25.6580    9.6180   20.8340 H   0  0  0  0  0  0  0  0  0  0  0  0
   24.9360   12.1640   18.6930 C   0  0  0  0  0  0  0  0  0  0  0  0
   24.2700   17.6760   27.0990 H   0  0  0  0  0  0  0  0  0  0  0  0
   25.3360   12.6830   17.8350 H   0  0  0  0  0  0  0  0  0  0  0  0
   26.0110   18.4630   24.2890 C   0  0  0  0  0  0  0  0  0  0  0  0
   23.8700   10.7920   20.9260 C   0  0  0  0  0  0  0  0  0  0  0  0
   23.7120   12.5220   19.2320 C   0  0  0  0  0  0  0  0  0  0  0  0
   26.5700   17.9990   23.4900 H   0  0  0  0  0  0  0  0  0  0  0  0
   25.6390   11.1160   19.2860 C   0  0  0  0  0  0  0  0  0  0  0  0
   27.1750   13.4880   23.6660 C   0  0  0  0  0  0  0  0  0  0  0  0
   29.7210   15.1070   22.9300 C   0  0  0  0  0  0  0  0  0  0  0  0
   23.6640   13.1990   23.8080 C   0  0  0  0  0  0  0  0  0  0  0  0
   27.2350   14.1150   21.3400 C   0  0  0  0  0  0  0  0  0  0  0  0
   27.5580   15.1550   21.2900 H   0  0  0  0  0  0  0  0  0  0  0  0
   27.3370   13.6550   20.3570 H   0  0  0  0  0  0  0  0  0  0  0  0
   20.4890   11.9020   25.1990 C   0  0  0  0  0  0  0  0  0  0  0  0
   25.4350   17.6910   25.2960 C   0  0  0  0  0  0  0  0  0  0  0  0
   20.8500   12.9300   25.1550 H   0  0  0  0  0  0  0  0  0  0  0  0
   20.0890   11.6150   24.2260 H   0  0  0  0  0  0  0  0  0  0  0  0
   25.8080   13.9890   21.8800 C   0  0  0  0  0  0  0  0  0  0  0  0
   25.3190   13.1130   21.4530 H   0  0  0  0  0  0  0  0  0  0  0  0
   25.2320   14.8820   21.6350 H   0  0  0  0  0  0  0  0  0  0  0  0
   20.1540   11.0320   27.3770 C   0  0  0  0  0  0  0  0  0  0  0  0
   19.4610   10.5130   28.0390 H   0  0  0  0  0  0  0  0  0  0  0  0
   20.7690   11.7180   27.9600 H   0  0  0  0  0  0  0  0  0  0  0  0
   19.4070   11.7700   26.2720 C   0  0  3  0  0  0  0  0  0  0  0  0
   18.9590   12.7220   26.5570 H   0  0  0  0  0  0  0  0  0  0  0  0
   21.6380   10.9530   25.6010 C   0  0  3  0  0  0  0  0  0  0  0  0
   22.4980   11.5110   25.9720 H   0  0  0  0  0  0  0  0  0  0  0  0
   27.9980   13.3320   22.4170 C   0  0  3  0  0  0  0  0  0  0  0  0
   31.1870   15.4700   22.9610 C   0  0  0  0  0  0  0  0  0  0  0  0
   31.7790   14.6180   22.6270 H   0  0  0  0  0  0  0  0  0  0  0  0
   31.4740   15.7350   23.9780 H   0  0  0  0  0  0  0  0  0  0  0  0
   31.3650   16.3180   22.3000 H   0  0  0  0  0  0  0  0  0  0  0  0
   23.2770   10.0620   22.1220 C   0  0  0  0  0  0  0  0  0  0  0  0
   24.0490    9.4200   22.5450 H   0  0  0  0  0  0  0  0  0  0  0  0
   22.4480    9.4490   21.7690 H   0  0  0  0  0  0  0  0  0  0  0  0
   27.8650   11.8720   21.9640 C   0  0  3  0  0  0  0  0  0  0  0  0
   27.0780   11.8930   20.6780 C   0  0  0  0  0  0  0  0  0  0  0  0
   26.9540   10.8740   20.3110 H   0  0  0  0  0  0  0  0  0  0  0  0
   27.8170   12.7110   19.6490 C   0  0  0  0  0  0  0  0  0  0  0  0
   27.2490   12.7260   18.7200 H   0  0  0  0  0  0  0  0  0  0  0  0
   28.7970   12.2680   19.4690 H   0  0  0  0  0  0  0  0  0  0  0  0
   25.5880   16.1920   25.2840 C   0  0  0  0  0  0  0  0  0  0  0  0
   27.9410   13.7300   20.0160 H   0  0  0  0  0  0  0  0  0  0  0  0
   26.0980   12.3350   20.8580 H   0  0  0  0  0  0  0  0  0  0  0  0
   25.5430   15.8240   26.3090 H   0  0  0  0  0  0  0  0  0  0  0  0
   27.2880   11.3610   22.7350 H   0  0  0  0  0  0  0  0  0  0  0  0
   26.5550   15.9390   24.8500 H   0  0  0  0  0  0  0  0  0  0  0  0
   24.4840   15.5150   24.4650 C   0  0  0  0  0  0  0  0  0  0  0  0
   24.4070   15.9970   23.4900 H   0  0  0  0  0  0  0  0  0  0  0  0
   23.5340   15.6050   24.9910 H   0  0  0  0  0  0  0  0  0  0  0  0
   24.8240   14.0400   24.2780 C   0  0  3  0  0  0  0  0  0  0  0  0
   25.1090   13.7090   25.2770 H   0  0  0  0  0  0  0  0  0  0  0  0
   22.2260   10.1380   24.4290 C   0  0  3  0  0  0  0  0  0  0  0  0
   23.1120    9.6280   24.8060 H   0  0  0  0  0  0  0  0  0  0  0  0
   29.0960   11.0120   21.7030 C   0  0  0  0  0  0  0  0  0  0  0  0
   29.7880   11.0740   22.5430 H   0  0  0  0  0  0  0  0  0  0  0  0
   29.6680   11.3510   20.8390 H   0  0  0  0  0  0  0  0  0  0  0  0
   28.7150   10.0040   21.5410 H   0  0  0  0  0  0  0  0  0  0  0  0
   22.7500   10.9840   23.2440 C   0  0  3  0  0  0  0  0  0  0  0  0
   17.1490   11.5140   25.3650 C   0  0  0  0  0  0  0  0  0  0  0  0
   21.9310   11.5870   22.8520 H   0  0  0  0  0  0  0  0  0  0  0  0
   21.0040   10.0590   26.6180 N   0  3  0  0  0  0  0  0  0  0  0  0
   20.4440    9.3410   26.1810 H   0  0  0  0  0  0  0  0  0  0  0  0
   21.6960    9.6290   27.2150 H   0  0  0  0  0  0  0  0  0  0  0  0
   25.9260   13.8440   23.3410 N   0  0  0  0  0  0  0  0  0  0  0  0
   29.3680   13.8690   22.5250 N   0  0  0  0  0  0  0  0  0  0  0  0
   30.1200   13.2450   22.2690 H   0  0  0  0  0  0  0  0  0  0  0  0
   16.4130   11.4910   26.1690 H   0  0  0  0  0  0  0  0  0  0  0  0
   23.8270   11.8630   23.7040 N   0  0  0  0  0  0  0  0  0  0  0  0
   24.7190   11.4580   23.9510 H   0  0  0  0  0  0  0  0  0  0  0  0
   27.5680   13.2710   24.7900 O   0  0  0  0  0  0  0  0  0  0  0  0
   28.9360   15.9740   23.2820 O   0  0  0  0  0  0  0  0  0  0  0  0
   22.5950   13.7100   23.5250 O   0  0  0  0  0  0  0  0  0  0  0  0
   17.3390   12.5480   25.0770 H   0  0  0  0  0  0  0  0  0  0  0  0
   21.2320    9.2070   23.9900 O   0  0  0  0  0  0  0  0  0  0  0  0
   20.4810    9.7130   23.6710 H   0  0  0  0  0  0  0  0  0  0  0  0
   23.0210   13.5220   18.6820 F   0  0  0  0  0  0  0  0  0  0  0  0
   26.8390   10.7710   18.7780 F   0  0  0  0  0  0  0  0  0  0  0  0
   18.3730   10.8990   25.8080 O   0  0  0  0  0  0  0  0  0  0  0  0
   15.6860    9.4190   22.0960 C   0  0  0  0  0  0  0  0  0  0  0  0
   15.3020    8.8690   21.2400 H   0  0  0  0  0  0  0  0  0  0  0  0
   15.5460    8.8930   23.3800 C   0  0  0  0  0  0  0  0  0  0  0  0
   15.0540    7.9340   23.5250 H   0  0  0  0  0  0  0  0  0  0  0  0
   16.0380    9.5970   24.4790 C   0  0  0  0  0  0  0  0  0  0  0  0
   15.9290    9.1870   25.4800 H   0  0  0  0  0  0  0  0  0  0  0  0
   16.6700   10.8270   24.2930 C   0  0  0  0  0  0  0  0  0  0  0  0
   16.8090   11.3530   23.0090 C   0  0  0  0  0  0  0  0  0  0  0  0
   17.3010   12.3110   22.8640 H   0  0  0  0  0  0  0  0  0  0  0  0
   16.3170   10.6490   21.9100 C   0  0  0  0  0  0  0  0  0  0  0  0
   16.4650   11.2080   20.5410 C   0  0  0  0  0  0  0  0  0  0  0  0
   15.9150   10.3520   19.6390 F   0  0  0  0  0  0  0  0  0  0  0  0
   17.7860   11.3750   20.2600 F   0  0  0  0  0  0  0  0  0  0  0  0
   15.8320   12.4100   20.4720 F   0  0  0  0  0  0  0  0  0  0  0  0
  1  2  1  0  0  0  0
  1  3  2  0  0  0  0
  1  5  1  0  0  0  0
  3  4  1  0  0  0  0
  3 10  1  0  0  0  0
  5  7  1  0  0  0  0
  5 15  2  0  0  0  0
  6  8  1  0  0  0  0
  6 16  2  0  0  0  0
  6 17  1  0  0  0  0
  9 11  1  0  0  0  0
  9 16  1  0  0  0  0
  9 19  2  0  0  0  0
 10 13  1  0  0  0  0
 10 27  2  0  0  0  0
 12 14  1  0  0  0  0
 12 17  2  0  0  0  0
 12 19  1  0  0  0  0
 15 18  1  0  0  0  0
 15 27  1  0  0  0  0
 16 45  1  0  0  0  0
 17 89  1  0  0  0  0
 19 90  1  0  0  0  0
 20 40  1  0  0  0  0
 20 77  1  0  0  0  0
 20 83  2  0  0  0  0
 21 41  1  0  0  0  0
 21 78  1  0  0  0  0
 21 84  2  0  0  0  0
 22 63  1  0  0  0  0
 22 81  1  0  0  0  0
 22 85  2  0  0  0  0
 23 24  1  0  0  0  0
 23 25  1  0  0  0  0
 23 30  1  0  0  0  0
 23 40  1  0  0  0  0
 26 28  1  0  0  0  0
 26 29  1  0  0  0  0
 26 36  1  0  0  0  0
 26 38  1  0  0  0  0
 27 54  1  0  0  0  0
 30 31  1  0  0  0  0
 30 32  1  0  0  0  0
 30 77  1  0  0  0  0
 33 34  1  0  0  0  0
 33 35  1  0  0  0  0
 33 36  1  0  0  0  0
 33 74  1  0  0  0  0
 36 37  1  0  0  0  0
 36 91  1  0  0  0  0
 38 39  1  0  0  0  0
 38 65  1  0  0  0  0
 38 74  1  0  0  0  0
 40 48  1  0  0  0  0
 40 78  1  0  0  0  0
 41 42  1  0  0  0  0
 41 43  1  0  0  0  0
 41 44  1  0  0  0  0
 45 46  1  0  0  0  0
 45 47  1  0  0  0  0
 45 71  1  0  0  0  0
 48 49  1  0  0  0  0
 48 58  1  0  0  0  0
 48 67  1  0  0  0  0
 49 50  1  0  0  0  0
 49 51  1  0  0  0  0
 49 56  1  0  0  0  0
 51 52  1  0  0  0  0
 51 53  1  0  0  0  0
 51 55  1  0  0  0  0
 54 57  1  0  0  0  0
 54 59  1  0  0  0  0
 54 60  1  0  0  0  0
 60 61  1  0  0  0  0
 60 62  1  0  0  0  0
 60 63  1  0  0  0  0
 63 64  1  0  0  0  0
 63 77  1  0  0  0  0
 65 66  1  0  0  0  0
 65 71  1  0  0  0  0
 65 87  1  0  0  0  0
 67 68  1  0  0  0  0
 67 69  1  0  0  0  0
 67 70  1  0  0  0  0
 71 73  1  0  0  0  0
 71 81  1  0  0  0  0
 72 80  1  0  0  0  0
 72 86  1  0  0  0  0
 72 91  1  0  0  0  0
 72 98  1  0  0  0  0
 74 75  1  0  0  0  0
 74 76  1  0  0  0  0
 78 79  1  0  0  0  0
 81 82  1  0  0  0  0
 87 88  1  0  0  0  0
 92 93  1  0  0  0  0
 92 94  1  0  0  0  0
 92101  2  0  0  0  0
 94 95  1  0  0  0  0
 94 96  2  0  0  0  0
 96 97  1  0  0  0  0
 96 98  1  0  0  0  0
 98 99  2  0  0  0  0
 99100  1  0  0  0  0
 99101  1  0  0  0  0
101102  1  0  0  0  0
102103  1  0  0  0  0
102104  1  0  0  0  0
102105  1  0  0  0  0
M  CHG  1  74   1
M  END
>  <PARENT_CMPD_ID>
CHEMBL1916166

>  <STANDARD_TYPE>
IC50

>  <RELATION>
=

>  <STANDARD_VALUE>
2.7

>  <STANDARD_UNITS>
nM

>  <COMPOUND_KEY>
31b

>  <PUBMED_ID>
21782431

>  <JOURNAL>
Bioorg.Med.Chem.Lett.

>  <YEAR>
2011

>  <VOLUME>
21

>  <FIRST_PAGE>
6916

>  <Company>
BMS

>  <idx>
304

>  <Model>
Valid

>  <target>
8.5686359

>  <des_pred_mlr>
8.1680899

>  <RF_Canvas>
7.7658477

>  <DNN_Canvas>
8.131649

>  <pred_CoMFA>
9.5613003

>  <pred_COMSIA>
9.3654003

>  <pred_abm5>
10.156195

>  <pred_ff8>
8.9233589

>  <pred_gau6>
10.041028

>  <CID>
BACE_304

>  <active>
1

>  <des_class_bayes>
1

>  <maacs_class_bayes>
1

>  <radial_class_bayes>
0

>  <dend_class_bayes>
1

>  <molprint_class_bayes>
1

>  <RF_canvas>
1

>  <DNN_canvas>
1

$$$$
23769639_23
  MOE2015           3D

 88 93  0  0  1  0  0  0  0  0999 V2000
   19.2890   12.3020   29.7910 C   0  0  0  0  0  0  0  0  0  0  0  0
   20.2350   12.8160   30.8720 C   0  0  0  0  0  0  0  0  0  0  0  0
   20.8870   13.7180   29.8290 C   0  0  0  0  0  0  0  0  0  0  0  0
   20.2770   12.8300   28.7170 C   0  0  0  0  0  0  0  0  0  0  0  0
   21.2500   11.8390   28.0790 C   0  0  0  0  0  0  0  0  0  0  0  0
   19.6680   13.6070   27.6750 O   0  0  0  0  0  0  0  0  0  0  0  0
   19.0240   12.9010   26.7000 C   0  0  0  0  0  0  0  0  0  0  0  0
   18.0840   13.5990   26.0560 N   0  0  0  0  0  0  0  0  0  0  0  0
   17.4290   12.9600   25.0650 C   0  0  0  0  0  0  0  0  0  0  0  0
   17.6960   11.6550   24.6730 C   0  0  0  0  0  0  0  0  0  0  0  0
   17.0150   11.0160   23.5040 C   0  0  0  0  0  0  0  0  0  0  0  0
   15.9600    9.9340   23.8050 C   0  0  0  0  0  0  0  0  0  0  0  0
   18.6830   10.9730   25.3660 C   0  0  0  0  0  0  0  0  0  0  0  0
   19.3810   11.5990   26.3910 C   0  0  0  0  0  0  0  0  0  0  0  0
   20.4770   10.9080   27.1370 C   0  0  3  0  0  0  0  0  0  0  0  0
   21.4490   10.1610   26.2530 N   0  3  0  0  0  0  0  0  0  0  0  0
   22.1020   10.9270   25.1270 C   0  0  0  0  0  0  0  0  0  0  0  0
   22.5280    9.9200   24.0560 C   0  0  3  0  0  0  0  0  0  0  0  0
   21.3710    9.1730   23.6570 O   0  0  0  0  0  0  0  0  0  0  0  0
   23.1750   10.5800   22.8280 C   0  0  3  0  0  0  0  0  0  0  0  0
   23.7080    9.5080   21.8480 C   0  0  0  0  0  0  0  0  0  0  0  0
   24.3900   10.0980   20.6420 C   0  0  0  0  0  0  0  0  0  0  0  0
   25.7840   10.2000   20.5860 C   0  0  0  0  0  0  0  0  0  0  0  0
   23.6340   10.5970   19.5880 C   0  0  0  0  0  0  0  0  0  0  0  0
   24.2550   11.1870   18.4990 C   0  0  0  0  0  0  0  0  0  0  0  0
   25.6370   11.3000   18.4590 C   0  0  0  0  0  0  0  0  0  0  0  0
   26.4170   10.8180   19.5070 C   0  0  0  0  0  0  0  0  0  0  0  0
   27.9100   10.9590   19.4540 C   0  0  0  0  0  0  0  0  0  0  0  0
   28.3440    9.9510   19.5060 H   0  0  0  0  0  0  0  0  0  0  0  0
   28.2170   11.3560   18.4770 H   0  0  0  0  0  0  0  0  0  0  0  0
   28.5290   11.8210   20.5480 C   0  0  0  0  0  0  0  0  0  0  0  0
   28.1070   13.2890   20.5120 C   0  0  0  0  0  0  0  0  0  0  0  0
   27.4240   13.6660   21.7420 N   0  0  0  0  0  0  0  0  0  0  0  0
   26.0840   13.3980   21.8500 C   0  0  0  0  0  0  0  0  0  0  0  0
   28.1480   14.2180   22.7980 C   0  0  0  0  0  0  0  0  0  0  0  0
   29.3440   14.4950   22.7690 O   0  0  0  0  0  0  0  0  0  0  0  0
   27.3830   14.4350   24.0640 C   0  0  0  0  0  0  0  0  0  0  0  0
   26.1010   14.0590   24.1610 C   0  0  0  0  0  0  0  0  0  0  0  0
   25.4510   13.5060   23.0210 C   0  0  0  0  0  0  0  0  0  0  0  0
   24.1360   12.8500   23.0490 C   0  0  0  0  0  0  0  0  0  0  0  0
   23.1200   13.4630   22.7650 O   0  0  0  0  0  0  0  0  0  0  0  0
   24.2480   11.4840   23.2020 N   0  0  0  0  0  0  0  0  0  0  0  0
   18.3160   12.8070   29.7860 H   0  0  0  0  0  0  0  0  0  0  0  0
   19.1170   11.2220   29.8070 H   0  0  0  0  0  0  0  0  0  0  0  0
   20.9080   12.0460   31.2650 H   0  0  0  0  0  0  0  0  0  0  0  0
   19.7590   13.3290   31.7120 H   0  0  0  0  0  0  0  0  0  0  0  0
   21.9790   13.7600   29.8720 H   0  0  0  0  0  0  0  0  0  0  0  0
   20.5030   14.7460   29.8380 H   0  0  0  0  0  0  0  0  0  0  0  0
   21.7790   11.2490   28.8370 H   0  0  0  0  0  0  0  0  0  0  0  0
   22.0150   12.4030   27.5310 H   0  0  0  0  0  0  0  0  0  0  0  0
   16.6710   13.5580   24.5650 H   0  0  0  0  0  0  0  0  0  0  0  0
   17.7930   10.5990   22.8470 H   0  0  0  0  0  0  0  0  0  0  0  0
   16.5490   11.8110   22.9040 H   0  0  0  0  0  0  0  0  0  0  0  0
   16.5530    8.6870   24.4570 C   0  0  0  0  0  0  0  0  0  0  0  0
   17.4130    8.3100   23.8910 H   0  0  0  0  0  0  0  0  0  0  0  0
   15.8150    7.8770   24.5050 H   0  0  0  0  0  0  0  0  0  0  0  0
   16.8740    8.8720   25.4870 H   0  0  0  0  0  0  0  0  0  0  0  0
   15.3380    9.5070   22.4670 C   0  0  0  0  0  0  0  0  0  0  0  0
   16.0940    9.0920   21.7910 H   0  0  0  0  0  0  0  0  0  0  0  0
   14.8670   10.3560   21.9570 H   0  0  0  0  0  0  0  0  0  0  0  0
   14.5650    8.7430   22.6080 H   0  0  0  0  0  0  0  0  0  0  0  0
   14.8480   10.4840   24.7040 C   0  0  0  0  0  0  0  0  0  0  0  0
   15.2200   10.7430   25.7010 H   0  0  0  0  0  0  0  0  0  0  0  0
   14.0470    9.7470   24.8400 H   0  0  0  0  0  0  0  0  0  0  0  0
   14.3960   11.3840   24.2710 H   0  0  0  0  0  0  0  0  0  0  0  0
   18.9260    9.9550   25.0760 H   0  0  0  0  0  0  0  0  0  0  0  0
   20.0070   10.1260   27.7470 H   0  0  0  0  0  0  0  0  0  0  0  0
   20.9500    9.3790   25.7940 H   0  0  0  0  0  0  0  0  0  0  0  0
   22.1680    9.7060   26.8300 H   0  0  0  0  0  0  0  0  0  0  0  0
   22.9460   11.4700   25.5600 H   0  0  0  0  0  0  0  0  0  0  0  0
   21.3730   11.6310   24.7180 H   0  0  0  0  0  0  0  0  0  0  0  0
   23.2310    9.2070   24.5060 H   0  0  0  0  0  0  0  0  0  0  0  0
   20.8800    9.6610   22.9680 H   0  0  0  0  0  0  0  0  0  0  0  0
   22.4050   11.1560   22.2980 H   0  0  0  0  0  0  0  0  0  0  0  0
   22.8890    8.8610   21.5100 H   0  0  0  0  0  0  0  0  0  0  0  0
   24.4140    8.8470   22.3690 H   0  0  0  0  0  0  0  0  0  0  0  0
   26.3870    9.8060   21.4010 H   0  0  0  0  0  0  0  0  0  0  0  0
   22.5490   10.5360   19.6080 H   0  0  0  0  0  0  0  0  0  0  0  0
   23.6570   11.5720   17.6770 H   0  0  0  0  0  0  0  0  0  0  0  0
   26.1010   11.7740   17.5960 H   0  0  0  0  0  0  0  0  0  0  0  0
   29.6180   11.7790   20.4170 H   0  0  0  0  0  0  0  0  0  0  0  0
   28.3340   11.3740   21.5310 H   0  0  0  0  0  0  0  0  0  0  0  0
   27.4690   13.5280   19.6530 H   0  0  0  0  0  0  0  0  0  0  0  0
   29.0040   13.9110   20.4070 H   0  0  0  0  0  0  0  0  0  0  0  0
   25.5920   12.9900   20.9740 H   0  0  0  0  0  0  0  0  0  0  0  0
   27.9290   14.8770   24.8890 H   0  0  0  0  0  0  0  0  0  0  0  0
   25.5450   14.1960   25.0810 H   0  0  0  0  0  0  0  0  0  0  0  0
   25.1320   11.1000   23.5240 H   0  0  0  0  0  0  0  0  0  0  0  0
  1  2  1  0  0  0  0
  1  4  1  0  0  0  0
  1 43  1  0  0  0  0
  1 44  1  0  0  0  0
  2  3  1  0  0  0  0
  2 45  1  0  0  0  0
  2 46  1  0  0  0  0
  3  4  1  0  0  0  0
  3 47  1  0  0  0  0
  3 48  1  0  0  0  0
  4  5  1  0  0  0  0
  4  6  1  0  0  0  0
  5 15  1  0  0  0  0
  5 49  1  0  0  0  0
  5 50  1  0  0  0  0
  6  7  1  0  0  0  0
  7  8  1  0  0  0  0
  7 14  2  0  0  0  0
  8  9  2  0  0  0  0
  9 10  1  0  0  0  0
  9 51  1  0  0  0  0
 10 11  1  0  0  0  0
 10 13  2  0  0  0  0
 11 12  1  0  0  0  0
 11 52  1  0  0  0  0
 11 53  1  0  0  0  0
 12 54  1  0  0  0  0
 12 58  1  0  0  0  0
 12 62  1  0  0  0  0
 13 14  1  0  0  0  0
 13 66  1  0  0  0  0
 14 15  1  0  0  0  0
 15 16  1  0  0  0  0
 15 67  1  0  0  0  0
 16 17  1  0  0  0  0
 16 68  1  0  0  0  0
 16 69  1  0  0  0  0
 17 18  1  0  0  0  0
 17 70  1  0  0  0  0
 17 71  1  0  0  0  0
 18 19  1  0  0  0  0
 18 20  1  0  0  0  0
 18 72  1  0  0  0  0
 19 73  1  0  0  0  0
 20 21  1  0  0  0  0
 20 42  1  0  0  0  0
 20 74  1  0  0  0  0
 21 22  1  0  0  0  0
 21 75  1  0  0  0  0
 21 76  1  0  0  0  0
 22 23  1  0  0  0  0
 22 24  2  0  0  0  0
 23 27  2  0  0  0  0
 23 77  1  0  0  0  0
 24 25  1  0  0  0  0
 24 78  1  0  0  0  0
 25 26  2  0  0  0  0
 25 79  1  0  0  0  0
 26 27  1  0  0  0  0
 26 80  1  0  0  0  0
 27 28  1  0  0  0  0
 28 29  1  0  0  0  0
 28 30  1  0  0  0  0
 28 31  1  0  0  0  0
 31 32  1  0  0  0  0
 31 81  1  0  0  0  0
 31 82  1  0  0  0  0
 32 33  1  0  0  0  0
 32 83  1  0  0  0  0
 32 84  1  0  0  0  0
 33 34  1  0  0  0  0
 33 35  1  0  0  0  0
 34 39  2  0  0  0  0
 34 85  1  0  0  0  0
 35 36  2  0  0  0  0
 35 37  1  0  0  0  0
 37 38  2  0  0  0  0
 37 86  1  0  0  0  0
 38 39  1  0  0  0  0
 38 87  1  0  0  0  0
 39 40  1  0  0  0  0
 40 41  2  0  0  0  0
 40 42  1  0  0  0  0
 42 88  1  0  0  0  0
 54 55  1  0  0  0  0
 54 56  1  0  0  0  0
 54 57  1  0  0  0  0
 58 59  1  0  0  0  0
 58 60  1  0  0  0  0
 58 61  1  0  0  0  0
 62 63  1  0  0  0  0
 62 64  1  0  0  0  0
 62 65  1  0  0  0  0
M  CHG  1  16   1
M  END
>  <PARENT_CMPD_ID>
23769639_23

>  <STANDARD_TYPE>
IC50

>  <RELATION>
=

>  <STANDARD_VALUE>
0.0027000001

>  <STANDARD_UNITS>
uM

>  <COMPOUND_KEY>
23

>  <PUBMED_ID>
23769639

>  <JOURNAL>
Bioorg.Med.Chem.Lett.

>  <YEAR>
2013

>  <VOLUME>
23

>  <FIRST_PAGE>
4459

>  <Company>
Amgen

>  <idx>
305

>  <Model>
Valid

>  <target>
8.5686359

>  <des_pred_mlr>
8.9815702

>  <RF_Canvas>
8.1588821

>  <DNN_Canvas>
8.5254307

>  <pred_CoMFA>
7.9555998

>  <pred_COMSIA>
8.0269003

>  <pred_abm5>
8.3733387

>  <pred_ff8>
8.2796707

>  <pred_gau6>
8.098278

>  <CID>
BACE_305

>  <active>
1

>  <des_class_bayes>
1

>  <maacs_class_bayes>
1

>  <radial_class_bayes>
1

>  <dend_class_bayes>
1

>  <molprint_class_bayes>
1

>  <RF_canvas>
1

>  <DNN_canvas>
1

$$$$
22468684_30
  MOE2015           3D

 80 83  0  0  1  0  0  0  0  0999 V2000
   20.7580   13.8950   29.6160 C   0  0  0  0  0  0  0  0  0  0  0  0
   20.1220   13.0140   30.6870 C   0  0  0  0  0  0  0  0  0  0  0  0
   19.1190   12.5380   29.6410 C   0  0  0  0  0  0  0  0  0  0  0  0
   20.0940   13.0100   28.5360 C   0  0  0  0  0  0  0  0  0  0  0  0
   21.0290   11.9710   27.9400 C   0  0  0  0  0  0  0  0  0  0  0  0
   19.4990   13.7760   27.4770 O   0  0  0  0  0  0  0  0  0  0  0  0
   18.8620   13.0710   26.4920 C   0  0  0  0  0  0  0  0  0  0  0  0
   17.9630   13.7860   25.8000 N   0  0  0  0  0  0  0  0  0  0  0  0
   17.3180   13.1500   24.8080 C   0  0  0  0  0  0  0  0  0  0  0  0
   17.5080   11.8160   24.4830 C   0  0  0  0  0  0  0  0  0  0  0  0
   16.7110   11.1720   23.3900 C   0  0  0  0  0  0  0  0  0  0  0  0
   15.3830   10.5150   23.8200 C   0  0  0  0  0  0  0  0  0  0  0  0
   14.4780   11.4900   24.5760 C   0  0  0  0  0  0  0  0  0  0  0  0
   15.6290    9.2840   24.6910 C   0  0  0  0  0  0  0  0  0  0  0  0
   14.6470   10.0690   22.5520 C   0  0  0  0  0  0  0  0  0  0  0  0
   18.4520   11.1110   25.2190 C   0  0  0  0  0  0  0  0  0  0  0  0
   19.1750   11.7450   26.2300 C   0  0  0  0  0  0  0  0  0  0  0  0
   20.2350   11.0360   27.0200 C   0  0  3  0  0  0  0  0  0  0  0  0
   21.2140   10.2450   26.1810 N   0  3  0  0  0  0  0  0  0  0  0  0
   21.9340   11.0090   25.0960 C   0  0  0  0  0  0  0  0  0  0  0  0
   22.3920   10.0290   24.0150 C   0  0  3  0  0  0  0  0  0  0  0  0
   21.2490    9.2570   23.6260 O   0  0  0  0  0  0  0  0  0  0  0  0
   23.0470   10.7360   22.8000 C   0  0  3  0  0  0  0  0  0  0  0  0
   24.0450   11.7020   23.2360 N   0  0  0  0  0  0  0  0  0  0  0  0
   23.7820   13.0520   23.3260 C   0  0  0  0  0  0  0  0  0  0  0  0
   22.6840   13.5430   23.0930 O   0  0  0  0  0  0  0  0  0  0  0  0
   24.9550   13.8710   23.8380 C   0  0  0  0  0  0  0  0  0  0  0  0
   26.1960   13.3210   23.4240 O   0  0  0  0  0  0  0  0  0  0  0  0
   26.6130   13.8340   22.1670 C   0  0  0  0  0  0  0  0  0  0  0  0
   23.6400    9.6980   21.8200 C   0  0  0  0  0  0  0  0  0  0  0  0
   24.5930   10.2660   20.8050 C   0  0  0  0  0  0  0  0  0  0  0  0
   25.9680   10.2050   21.0300 C   0  0  0  0  0  0  0  0  0  0  0  0
   24.1510   10.8840   19.6460 C   0  0  0  0  0  0  0  0  0  0  0  0
   25.0340   11.4310   18.7290 C   0  0  0  0  0  0  0  0  0  0  0  0
   26.4000   11.3670   18.9700 C   0  0  0  0  0  0  0  0  0  0  0  0
   26.8710   10.7520   20.1230 C   0  0  0  0  0  0  0  0  0  0  0  0
   21.8520   13.9180   29.6240 H   0  0  0  0  0  0  0  0  0  0  0  0
   20.3940   14.9300   29.6280 H   0  0  0  0  0  0  0  0  0  0  0  0
   19.6980   13.5420   31.5450 H   0  0  0  0  0  0  0  0  0  0  0  0
   20.7840   12.2210   31.0540 H   0  0  0  0  0  0  0  0  0  0  0  0
   18.1710   13.0900   29.6610 H   0  0  0  0  0  0  0  0  0  0  0  0
   18.8940   11.4680   29.6730 H   0  0  0  0  0  0  0  0  0  0  0  0
   21.5360   11.3840   28.7160 H   0  0  0  0  0  0  0  0  0  0  0  0
   21.8170   12.4950   27.3850 H   0  0  0  0  0  0  0  0  0  0  0  0
   16.6000   13.7660   24.2710 H   0  0  0  0  0  0  0  0  0  0  0  0
   17.3450   10.4310   22.8830 H   0  0  0  0  0  0  0  0  0  0  0  0
   16.5110   11.9340   22.6230 H   0  0  0  0  0  0  0  0  0  0  0  0
   14.8940   11.7680   25.5500 H   0  0  0  0  0  0  0  0  0  0  0  0
   13.4950   11.0450   24.7690 H   0  0  0  0  0  0  0  0  0  0  0  0
   14.3130   12.4080   24.0010 H   0  0  0  0  0  0  0  0  0  0  0  0
   16.0680    9.5480   25.6590 H   0  0  0  0  0  0  0  0  0  0  0  0
   16.3050    8.5750   24.1980 H   0  0  0  0  0  0  0  0  0  0  0  0
   14.6930    8.7530   24.9010 H   0  0  0  0  0  0  0  0  0  0  0  0
   14.4220   10.9210   21.9000 H   0  0  0  0  0  0  0  0  0  0  0  0
   13.6970    9.5780   22.7910 H   0  0  0  0  0  0  0  0  0  0  0  0
   15.2480    9.3580   21.9730 H   0  0  0  0  0  0  0  0  0  0  0  0
   18.6180   10.0610   24.9900 H   0  0  0  0  0  0  0  0  0  0  0  0
   19.7310   10.2850   27.6410 H   0  0  0  0  0  0  0  0  0  0  0  0
   20.7110    9.4910   25.6800 H   0  0  0  0  0  0  0  0  0  0  0  0
   21.8940    9.7600   26.7800 H   0  0  0  0  0  0  0  0  0  0  0  0
   22.7710   11.5250   25.5750 H   0  0  0  0  0  0  0  0  0  0  0  0
   21.2360   11.7350   24.6730 H   0  0  0  0  0  0  0  0  0  0  0  0
   23.1090    9.3320   24.4650 H   0  0  0  0  0  0  0  0  0  0  0  0
   20.8500    9.6490   22.8250 H   0  0  0  0  0  0  0  0  0  0  0  0
   22.2680   11.2830   22.2520 H   0  0  0  0  0  0  0  0  0  0  0  0
   24.9960   11.4100   23.4630 H   0  0  0  0  0  0  0  0  0  0  0  0
   24.8500   14.9160   23.5260 H   0  0  0  0  0  0  0  0  0  0  0  0
   24.9220   13.8330   24.9320 H   0  0  0  0  0  0  0  0  0  0  0  0
   27.5580   13.3560   21.8970 H   0  0  0  0  0  0  0  0  0  0  0  0
   26.7820   14.9140   22.2330 H   0  0  0  0  0  0  0  0  0  0  0  0
   25.8720   13.6180   21.3930 H   0  0  0  0  0  0  0  0  0  0  0  0
   22.8280    9.1690   21.3030 H   0  0  0  0  0  0  0  0  0  0  0  0
   24.1690    8.9210   22.3880 H   0  0  0  0  0  0  0  0  0  0  0  0
   26.3490    9.7230   21.9290 H   0  0  0  0  0  0  0  0  0  0  0  0
   22.8440   10.9570   19.4000 F   0  0  0  0  0  0  0  0  0  0  0  0
   24.6520   11.9070   17.8310 H   0  0  0  0  0  0  0  0  0  0  0  0
   27.0940   11.7980   18.2520 H   0  0  0  0  0  0  0  0  0  0  0  0
   28.2730   10.6750   20.4060 C   0  0  0  0  0  0  0  0  0  0  0  0
   29.4420   10.6100   20.6730 C   0  0  0  0  0  0  0  0  0  0  0  0
   30.4790   10.5550   20.9100 H   0  0  0  0  0  0  0  0  0  0  0  0
  1  2  1  0  0  0  0
  1  4  1  0  0  0  0
  1 37  1  0  0  0  0
  1 38  1  0  0  0  0
  2  3  1  0  0  0  0
  2 39  1  0  0  0  0
  2 40  1  0  0  0  0
  3  4  1  0  0  0  0
  3 41  1  0  0  0  0
  3 42  1  0  0  0  0
  4  5  1  0  0  0  0
  4  6  1  0  0  0  0
  5 18  1  0  0  0  0
  5 43  1  0  0  0  0
  5 44  1  0  0  0  0
  6  7  1  0  0  0  0
  7  8  1  0  0  0  0
  7 17  2  0  0  0  0
  8  9  2  0  0  0  0
  9 10  1  0  0  0  0
  9 45  1  0  0  0  0
 10 11  1  0  0  0  0
 10 16  2  0  0  0  0
 11 12  1  0  0  0  0
 11 46  1  0  0  0  0
 11 47  1  0  0  0  0
 12 13  1  0  0  0  0
 12 14  1  0  0  0  0
 12 15  1  0  0  0  0
 13 48  1  0  0  0  0
 13 49  1  0  0  0  0
 13 50  1  0  0  0  0
 14 51  1  0  0  0  0
 14 52  1  0  0  0  0
 14 53  1  0  0  0  0
 15 54  1  0  0  0  0
 15 55  1  0  0  0  0
 15 56  1  0  0  0  0
 16 17  1  0  0  0  0
 16 57  1  0  0  0  0
 17 18  1  0  0  0  0
 18 19  1  0  0  0  0
 18 58  1  0  0  0  0
 19 20  1  0  0  0  0
 19 59  1  0  0  0  0
 19 60  1  0  0  0  0
 20 21  1  0  0  0  0
 20 61  1  0  0  0  0
 20 62  1  0  0  0  0
 21 22  1  0  0  0  0
 21 23  1  0  0  0  0
 21 63  1  0  0  0  0
 22 64  1  0  0  0  0
 23 24  1  0  0  0  0
 23 30  1  0  0  0  0
 23 65  1  0  0  0  0
 24 25  1  0  0  0  0
 24 66  1  0  0  0  0
 25 26  2  0  0  0  0
 25 27  1  0  0  0  0
 27 28  1  0  0  0  0
 27 67  1  0  0  0  0
 27 68  1  0  0  0  0
 28 29  1  0  0  0  0
 29 69  1  0  0  0  0
 29 70  1  0  0  0  0
 29 71  1  0  0  0  0
 30 31  1  0  0  0  0
 30 72  1  0  0  0  0
 30 73  1  0  0  0  0
 31 32  1  0  0  0  0
 31 33  2  0  0  0  0
 32 36  2  0  0  0  0
 32 74  1  0  0  0  0
 33 34  1  0  0  0  0
 33 75  1  0  0  0  0
 34 35  2  0  0  0  0
 34 76  1  0  0  0  0
 35 36  1  0  0  0  0
 35 77  1  0  0  0  0
 36 78  1  0  0  0  0
 78 79  3  0  0  0  0
 79 80  1  0  0  0  0
M  CHG  1  19   1
M  END
>  <PARENT_CMPD_ID>
22468684_30

>  <STANDARD_TYPE>
IC50

>  <RELATION>
=

>  <STANDARD_VALUE>
2.9000001

>  <STANDARD_UNITS>
nM

>  <COMPOUND_KEY>
30

>  <PUBMED_ID>
22468684

>  <JOURNAL>
J.Med.Chem.

>  <YEAR>
2012

>  <VOLUME>
55

>  <FIRST_PAGE>
9025

>  <Company>
Amgen

>  <idx>
306

>  <Model>
Valid

>  <target>
8.5376024

>  <des_pred_mlr>
7.60151

>  <RF_Canvas>
8.0394297

>  <DNN_Canvas>
7.3585544

>  <pred_CoMFA>
8.4617004

>  <pred_COMSIA>
8.2300997

>  <pred_abm5>
8.512332

>  <pred_ff8>
8.1077118

>  <pred_gau6>
8.7679815

>  <CID>
BACE_306

>  <active>
1

>  <des_class_bayes>
1

>  <maacs_class_bayes>
1

>  <radial_class_bayes>
1

>  <dend_class_bayes>
1

>  <molprint_class_bayes>
1

>  <RF_canvas>
1

>  <DNN_canvas>
1

$$$$
CHEMBL540729
  MOE2015           3D

 88 90  0  0  1  0  0  0  0  0999 V2000
   32.0520   13.9980   19.8660 C   0  0  0  0  0  0  0  0  0  0  0  0
   31.1750   13.8630   21.0990 C   0  0  0  0  0  0  0  0  0  0  0  0
   29.7020   13.7800   20.7240 C   0  0  0  0  0  0  0  0  0  0  0  0
   28.8580   13.6580   21.9020 N   0  0  0  0  0  0  0  0  0  0  0  0
   28.9030   12.4000   22.6440 C   0  0  0  0  0  0  0  0  0  0  0  0
   29.0630   11.1510   21.7840 C   0  0  0  0  0  0  0  0  0  0  0  0
   28.9700    9.8970   22.6270 C   0  0  0  0  0  0  0  0  0  0  0  0
   28.1690   14.8010   22.2950 C   0  0  0  0  0  0  0  0  0  0  0  0
   28.4150   15.9140   21.8250 O   0  0  0  0  0  0  0  0  0  0  0  0
   27.0550   14.7620   23.2660 C   0  0  0  0  0  0  0  0  0  0  0  0
   26.9200   15.8520   24.1260 C   0  0  0  0  0  0  0  0  0  0  0  0
   25.7050   16.0920   24.7560 C   0  0  0  0  0  0  0  0  0  0  0  0
   24.6330   15.2250   24.5880 C   0  0  0  0  0  0  0  0  0  0  0  0
   24.7830   14.1170   23.7610 C   0  0  0  0  0  0  0  0  0  0  0  0
   25.9860   13.8900   23.0840 C   0  0  0  0  0  0  0  0  0  0  0  0
   23.6090   13.2560   23.5040 C   0  0  0  0  0  0  0  0  0  0  0  0
   22.4730   13.7070   23.4420 O   0  0  0  0  0  0  0  0  0  0  0  0
   23.8810   11.9170   23.3630 N   0  0  0  0  0  0  0  0  0  0  0  0
   22.8550   10.9620   22.9610 C   0  0  3  0  0  0  0  0  0  0  0  0
   23.3890   10.0350   21.8570 C   0  0  0  0  0  0  0  0  0  0  0  0
   23.9210   10.7970   20.6720 C   0  0  0  0  0  0  0  0  0  0  0  0
   25.2360   10.6110   20.2510 C   0  0  0  0  0  0  0  0  0  0  0  0
   25.7430   11.3580   19.2000 C   0  0  0  0  0  0  0  0  0  0  0  0
   27.0080   11.1720   18.8230 F   0  0  0  0  0  0  0  0  0  0  0  0
   24.9700   12.2920   18.5450 C   0  0  0  0  0  0  0  0  0  0  0  0
   23.6630   12.4650   18.9500 C   0  0  0  0  0  0  0  0  0  0  0  0
   22.8980   13.3660   18.3330 F   0  0  0  0  0  0  0  0  0  0  0  0
   23.1290   11.7250   19.9920 C   0  0  0  0  0  0  0  0  0  0  0  0
   22.3520   10.2120   24.2020 C   0  0  3  0  0  0  0  0  0  0  0  0
   23.4470    9.6960   24.9610 O   0  0  0  0  0  0  0  0  0  0  0  0
   21.5440   11.1450   25.1040 C   0  0  0  0  0  0  0  0  0  0  0  0
   20.8920   10.3180   26.1750 N   0  3  0  0  0  0  0  0  0  0  0  0
   19.9510   11.0770   27.0560 C   0  0  0  0  0  0  0  0  0  0  0  0
   18.7470   11.6000   26.3190 C   0  0  0  0  0  0  0  0  0  0  0  0
   18.4530   12.9640   26.3160 C   0  0  0  0  0  0  0  0  0  0  0  0
   17.3850   13.4550   25.5720 C   0  0  0  0  0  0  0  0  0  0  0  0
   16.6030   12.5900   24.8190 C   0  0  0  0  0  0  0  0  0  0  0  0
   16.8600   11.2250   24.8370 C   0  0  0  0  0  0  0  0  0  0  0  0
   16.0810   10.4380   24.0360 O   0  0  0  0  0  0  0  0  0  0  0  0
   15.6550    9.2310   24.6560 C   0  0  0  0  0  0  0  0  0  0  0  0
   17.9240   10.7330   25.5890 C   0  0  0  0  0  0  0  0  0  0  0  0
   25.5290   17.3240   25.5440 C   0  0  0  0  0  0  0  0  0  0  0  0
   25.6070   18.5390   25.0890 N   0  0  0  0  0  0  0  0  0  0  0  0
   25.8320   18.5700   23.7100 O   0  0  0  0  0  0  0  0  0  0  0  0
   25.2200   17.1430   27.0030 C   0  0  0  0  0  0  0  0  0  0  0  0
   33.1050   14.0610   20.1550 H   0  0  0  0  0  0  0  0  0  0  0  0
   31.8010   14.9020   19.3020 H   0  0  0  0  0  0  0  0  0  0  0  0
   31.9330   13.1350   19.2030 H   0  0  0  0  0  0  0  0  0  0  0  0
   31.3430   14.7240   21.7570 H   0  0  0  0  0  0  0  0  0  0  0  0
   31.4890   12.9760   21.6590 H   0  0  0  0  0  0  0  0  0  0  0  0
   29.5070   12.9440   20.0450 H   0  0  0  0  0  0  0  0  0  0  0  0
   29.4280   14.6760   20.1530 H   0  0  0  0  0  0  0  0  0  0  0  0
   29.7590   12.4800   23.3270 H   0  0  0  0  0  0  0  0  0  0  0  0
   28.0280   12.3040   23.2890 H   0  0  0  0  0  0  0  0  0  0  0  0
   28.2840   11.1240   21.0170 H   0  0  0  0  0  0  0  0  0  0  0  0
   30.0290   11.1440   21.2690 H   0  0  0  0  0  0  0  0  0  0  0  0
   27.9970    9.8270   23.1240 H   0  0  0  0  0  0  0  0  0  0  0  0
   29.7510    9.8780   23.3940 H   0  0  0  0  0  0  0  0  0  0  0  0
   29.0910    9.0080   21.9990 H   0  0  0  0  0  0  0  0  0  0  0  0
   27.7240   16.5820   24.2110 H   0  0  0  0  0  0  0  0  0  0  0  0
   23.6740   15.4330   25.0560 H   0  0  0  0  0  0  0  0  0  0  0  0
   26.0460   13.1160   22.3230 H   0  0  0  0  0  0  0  0  0  0  0  0
   24.8130   11.5650   23.5530 H   0  0  0  0  0  0  0  0  0  0  0  0
   22.0040   11.5150   22.5440 H   0  0  0  0  0  0  0  0  0  0  0  0
   24.1820    9.3940   22.2630 H   0  0  0  0  0  0  0  0  0  0  0  0
   22.5930    9.3630   21.5130 H   0  0  0  0  0  0  0  0  0  0  0  0
   25.8890    9.8920   20.7390 H   0  0  0  0  0  0  0  0  0  0  0  0
   25.3780   12.8750   17.7270 H   0  0  0  0  0  0  0  0  0  0  0  0
   22.0950   11.9020   20.2720 H   0  0  0  0  0  0  0  0  0  0  0  0
   21.7250    9.3670   23.8920 H   0  0  0  0  0  0  0  0  0  0  0  0
   23.9120    9.0250   24.4290 H   0  0  0  0  0  0  0  0  0  0  0  0
   20.7520   11.6450   24.5400 H   0  0  0  0  0  0  0  0  0  0  0  0
   22.1710   11.8740   25.6260 H   0  0  0  0  0  0  0  0  0  0  0  0
   20.4000    9.5190   25.7600 H   0  0  0  0  0  0  0  0  0  0  0  0
   21.6510    9.9080   26.7400 H   0  0  0  0  0  0  0  0  0  0  0  0
   19.6340   10.3830   27.8420 H   0  0  0  0  0  0  0  0  0  0  0  0
   20.5320   11.8800   27.5230 H   0  0  0  0  0  0  0  0  0  0  0  0
   19.0650   13.6690   26.8750 H   0  0  0  0  0  0  0  0  0  0  0  0
   17.1720   14.5220   25.5630 H   0  0  0  0  0  0  0  0  0  0  0  0
   15.7850   12.9800   24.2190 H   0  0  0  0  0  0  0  0  0  0  0  0
   14.7930    8.8540   24.0970 H   0  0  0  0  0  0  0  0  0  0  0  0
   15.3390    9.3900   25.6930 H   0  0  0  0  0  0  0  0  0  0  0  0
   16.4410    8.4710   24.6030 H   0  0  0  0  0  0  0  0  0  0  0  0
   18.1310    9.6680   25.5800 H   0  0  0  0  0  0  0  0  0  0  0  0
   25.8960   19.5260   23.5330 H   0  0  0  0  0  0  0  0  0  0  0  0
   24.1870   17.4470   27.1930 H   0  0  0  0  0  0  0  0  0  0  0  0
   25.8890   17.7740   27.5970 H   0  0  0  0  0  0  0  0  0  0  0  0
   25.3510   16.1050   27.3210 H   0  0  0  0  0  0  0  0  0  0  0  0
  1  2  1  0  0  0  0
  1 46  1  0  0  0  0
  1 47  1  0  0  0  0
  1 48  1  0  0  0  0
  2  3  1  0  0  0  0
  2 49  1  0  0  0  0
  2 50  1  0  0  0  0
  3  4  1  0  0  0  0
  3 51  1  0  0  0  0
  3 52  1  0  0  0  0
  4  5  1  0  0  0  0
  4  8  1  0  0  0  0
  5  6  1  0  0  0  0
  5 53  1  0  0  0  0
  5 54  1  0  0  0  0
  6  7  1  0  0  0  0
  6 55  1  0  0  0  0
  6 56  1  0  0  0  0
  7 57  1  0  0  0  0
  7 58  1  0  0  0  0
  7 59  1  0  0  0  0
  8  9  2  0  0  0  0
  8 10  1  0  0  0  0
 10 11  1  0  0  0  0
 10 15  2  0  0  0  0
 11 12  2  0  0  0  0
 11 60  1  0  0  0  0
 12 13  1  0  0  0  0
 12 42  1  0  0  0  0
 13 14  2  0  0  0  0
 13 61  1  0  0  0  0
 14 15  1  0  0  0  0
 14 16  1  0  0  0  0
 15 62  1  0  0  0  0
 16 17  2  0  0  0  0
 16 18  1  0  0  0  0
 18 19  1  0  0  0  0
 18 63  1  0  0  0  0
 19 20  1  0  0  0  0
 19 29  1  0  0  0  0
 19 64  1  0  0  0  0
 20 21  1  0  0  0  0
 20 65  1  0  0  0  0
 20 66  1  0  0  0  0
 21 22  1  0  0  0  0
 21 28  2  0  0  0  0
 22 23  2  0  0  0  0
 22 67  1  0  0  0  0
 23 24  1  0  0  0  0
 23 25  1  0  0  0  0
 25 26  2  0  0  0  0
 25 68  1  0  0  0  0
 26 27  1  0  0  0  0
 26 28  1  0  0  0  0
 28 69  1  0  0  0  0
 29 30  1  0  0  0  0
 29 31  1  0  0  0  0
 29 70  1  0  0  0  0
 30 71  1  0  0  0  0
 31 32  1  0  0  0  0
 31 72  1  0  0  0  0
 31 73  1  0  0  0  0
 32 33  1  0  0  0  0
 32 74  1  0  0  0  0
 32 75  1  0  0  0  0
 33 34  1  0  0  0  0
 33 76  1  0  0  0  0
 33 77  1  0  0  0  0
 34 35  1  0  0  0  0
 34 41  2  0  0  0  0
 35 36  2  0  0  0  0
 35 78  1  0  0  0  0
 36 37  1  0  0  0  0
 36 79  1  0  0  0  0
 37 38  2  0  0  0  0
 37 80  1  0  0  0  0
 38 39  1  0  0  0  0
 38 41  1  0  0  0  0
 39 40  1  0  0  0  0
 40 81  1  0  0  0  0
 40 82  1  0  0  0  0
 40 83  1  0  0  0  0
 41 84  1  0  0  0  0
 42 43  2  0  0  0  0
 42 45  1  0  0  0  0
 43 44  1  0  0  0  0
 44 85  1  0  0  0  0
 45 86  1  0  0  0  0
 45 87  1  0  0  0  0
 45 88  1  0  0  0  0
M  CHG  1  32   1
M  END
>  <PARENT_CMPD_ID>
CHEMBL540729

>  <STANDARD_TYPE>
IC50

>  <RELATION>
=

>  <STANDARD_VALUE>
3

>  <STANDARD_UNITS>
nM

>  <COMPOUND_KEY>
1e

>  <PUBMED_ID>
19375914

>  <JOURNAL>
Bioorg. Med. Chem. Lett.

>  <YEAR>
2009

>  <VOLUME>
19

>  <FIRST_PAGE>
2654

>  <Company>
BMS

>  <idx>
307

>  <Model>
Valid

>  <target>
8.5228786

>  <des_pred_mlr>
7.53407

>  <RF_Canvas>
7.4897742

>  <DNN_Canvas>
7.4683905

>  <pred_CoMFA>
6.8393998

>  <pred_COMSIA>
8.2070999

>  <pred_abm5>
7.0768828

>  <pred_ff8>
6.9068747

>  <pred_gau6>
7.4833622

>  <CID>
BACE_307

>  <active>
1

>  <des_class_bayes>
1

>  <maacs_class_bayes>
0

>  <radial_class_bayes>
0

>  <dend_class_bayes>
1

>  <molprint_class_bayes>
1

>  <RF_canvas>
1

>  <DNN_canvas>
1

$$$$
CHEMBL564530
  MOE2015           3D

 73 76  0  0  1  0  0  0  0  0999 V2000
   29.5770   11.1300   21.4640 C   0  0  0  0  0  0  0  0  0  0  0  0
   29.2440   12.5170   20.9610 C   0  0  0  0  0  0  0  0  0  0  0  0
   29.0600   13.4650   22.0380 N   0  0  0  0  0  0  0  0  0  0  0  0
   30.0480   14.2680   22.5060 C   0  0  0  0  0  0  0  0  0  0  0  0
   29.5670   14.9740   23.5840 C   0  0  0  0  0  0  0  0  0  0  0  0
   30.4650   15.7460   24.4820 C   0  0  0  0  0  0  0  0  0  0  0  0
   29.8620   16.6950   25.4690 C   0  0  0  0  0  0  0  0  0  0  0  0
   29.4310   17.5720   24.9770 H   0  0  0  0  0  0  0  0  0  0  0  0
   30.6490   17.0710   26.1340 H   0  0  0  0  0  0  0  0  0  0  0  0
   28.6210   15.9990   26.5340 S   0  0  0  0  0  0  0  0  0  0  0  0
   28.8300   14.5960   26.8170 O   0  0  0  0  0  0  0  0  0  0  0  0
   28.4140   16.9260   27.6250 O   0  0  0  0  0  0  0  0  0  0  0  0
   27.2550   16.0870   25.5380 N   0  0  0  0  0  0  0  0  0  0  0  0
   26.6480   17.3870   25.2500 C   0  0  0  0  0  0  0  0  0  0  0  0
   27.1240   15.0710   24.5440 C   0  0  0  0  0  0  0  0  0  0  0  0
   25.8600   14.4890   24.4160 C   0  0  0  0  0  0  0  0  0  0  0  0
   25.6460   13.4700   23.5080 C   0  0  0  0  0  0  0  0  0  0  0  0
   26.6570   13.0700   22.6370 C   0  0  0  0  0  0  0  0  0  0  0  0
   27.9060   13.6840   22.7420 C   0  0  0  0  0  0  0  0  0  0  0  0
   28.1770   14.6670   23.6940 C   0  0  0  0  0  0  0  0  0  0  0  0
   24.3170   12.8190   23.4520 C   0  0  0  0  0  0  0  0  0  0  0  0
   23.2810   13.4590   23.5680 O   0  0  0  0  0  0  0  0  0  0  0  0
   24.3430   11.4630   23.2200 N   0  0  0  0  0  0  0  0  0  0  0  0
   23.1500   10.6980   22.8860 C   0  0  3  0  0  0  0  0  0  0  0  0
   23.4580    9.7390   21.7150 C   0  0  0  0  0  0  0  0  0  0  0  0
   24.2840   10.3790   20.6270 C   0  0  0  0  0  0  0  0  0  0  0  0
   25.5090    9.8210   20.2610 C   0  0  0  0  0  0  0  0  0  0  0  0
   26.3080   10.4380   19.3070 C   0  0  0  0  0  0  0  0  0  0  0  0
   25.8940   11.6180   18.7110 C   0  0  0  0  0  0  0  0  0  0  0  0
   24.6740   12.1770   19.0590 C   0  0  0  0  0  0  0  0  0  0  0  0
   23.8680   11.5550   20.0030 C   0  0  0  0  0  0  0  0  0  0  0  0
   22.5920    9.9580   24.1160 C   0  0  2  0  0  0  0  0  0  0  0  0
   21.4330    9.1730   23.7980 O   0  0  0  0  0  0  0  0  0  0  0  0
   22.1890   10.9280   25.2260 C   0  0  0  0  0  0  0  0  0  0  0  0
   21.2490   10.1980   26.1510 N   0  3  0  0  0  0  0  0  0  0  0  0
   20.1930   11.0680   26.7510 C   0  0  0  0  0  0  0  0  0  0  0  0
   19.0610   11.2330   25.7460 C   0  0  0  0  0  0  0  0  0  0  0  0
   18.2790   12.4740   26.0390 C   0  0  0  0  0  0  0  0  0  0  0  0
   17.7580   12.4160   27.2720 F   0  0  0  0  0  0  0  0  0  0  0  0
   17.2800   12.6320   25.1560 F   0  0  0  0  0  0  0  0  0  0  0  0
   19.0610   13.5600   25.9770 F   0  0  0  0  0  0  0  0  0  0  0  0
   29.7210   10.4450   20.6230 H   0  0  0  0  0  0  0  0  0  0  0  0
   28.7740   10.7290   22.0920 H   0  0  0  0  0  0  0  0  0  0  0  0
   30.4950   11.1350   22.0610 H   0  0  0  0  0  0  0  0  0  0  0  0
   28.3330   12.5100   20.3560 H   0  0  0  0  0  0  0  0  0  0  0  0
   30.0500   12.8880   20.3180 H   0  0  0  0  0  0  0  0  0  0  0  0
   31.0490   14.2200   22.0960 H   0  0  0  0  0  0  0  0  0  0  0  0
   31.1790   16.3090   23.8650 H   0  0  0  0  0  0  0  0  0  0  0  0
   31.0680   15.0130   25.0380 H   0  0  0  0  0  0  0  0  0  0  0  0
   25.5650   17.2860   25.1320 H   0  0  0  0  0  0  0  0  0  0  0  0
   27.0620   17.8160   24.3320 H   0  0  0  0  0  0  0  0  0  0  0  0
   26.8070   18.0970   26.0660 H   0  0  0  0  0  0  0  0  0  0  0  0
   25.0550   14.8050   25.0760 H   0  0  0  0  0  0  0  0  0  0  0  0
   26.4820   12.3110   21.8820 H   0  0  0  0  0  0  0  0  0  0  0  0
   25.2310   10.9720   23.2580 H   0  0  0  0  0  0  0  0  0  0  0  0
   22.3810   11.3990   22.5330 H   0  0  0  0  0  0  0  0  0  0  0  0
   23.9930    8.8630   22.1050 H   0  0  0  0  0  0  0  0  0  0  0  0
   22.5280    9.3600   21.2750 H   0  0  0  0  0  0  0  0  0  0  0  0
   25.8610    8.9030   20.7240 H   0  0  0  0  0  0  0  0  0  0  0  0
   27.2620    9.9960   19.0320 H   0  0  0  0  0  0  0  0  0  0  0  0
   26.5190   12.1000   17.9640 H   0  0  0  0  0  0  0  0  0  0  0  0
   24.3430   13.0960   18.5840 H   0  0  0  0  0  0  0  0  0  0  0  0
   22.9140   12.0110   20.2570 H   0  0  0  0  0  0  0  0  0  0  0  0
   23.3420    9.2620   24.5100 H   0  0  0  0  0  0  0  0  0  0  0  0
   21.0000    9.5340   23.0000 H   0  0  0  0  0  0  0  0  0  0  0  0
   21.6390   11.7790   24.8150 H   0  0  0  0  0  0  0  0  0  0  0  0
   23.0340   11.2880   25.8200 H   0  0  0  0  0  0  0  0  0  0  0  0
   20.8410    9.4390   25.5650 H   0  0  0  0  0  0  0  0  0  0  0  0
   21.7900    9.7160   26.8810 H   0  0  0  0  0  0  0  0  0  0  0  0
   19.8390   10.5560   27.6520 H   0  0  0  0  0  0  0  0  0  0  0  0
   20.6710   12.0080   27.0430 H   0  0  0  0  0  0  0  0  0  0  0  0
   18.4040   10.3560   25.7820 H   0  0  0  0  0  0  0  0  0  0  0  0
   19.4360   11.2990   24.7190 H   0  0  0  0  0  0  0  0  0  0  0  0
  1  2  1  0  0  0  0
  1 42  1  0  0  0  0
  1 43  1  0  0  0  0
  1 44  1  0  0  0  0
  2  3  1  0  0  0  0
  2 45  1  0  0  0  0
  2 46  1  0  0  0  0
  3  4  1  0  0  0  0
  3 19  1  0  0  0  0
  4  5  2  0  0  0  0
  4 47  1  0  0  0  0
  5  6  1  0  0  0  0
  5 20  1  0  0  0  0
  6  7  1  0  0  0  0
  6 48  1  0  0  0  0
  6 49  1  0  0  0  0
  7  8  1  0  0  0  0
  7  9  1  0  0  0  0
  7 10  1  0  0  0  0
 10 11  2  0  0  0  0
 10 12  2  0  0  0  0
 10 13  1  0  0  0  0
 13 14  1  0  0  0  0
 13 15  1  0  0  0  0
 14 50  1  0  0  0  0
 14 51  1  0  0  0  0
 14 52  1  0  0  0  0
 15 16  1  0  0  0  0
 15 20  2  0  0  0  0
 16 17  2  0  0  0  0
 16 53  1  0  0  0  0
 17 18  1  0  0  0  0
 17 21  1  0  0  0  0
 18 19  2  0  0  0  0
 18 54  1  0  0  0  0
 19 20  1  0  0  0  0
 21 22  2  0  0  0  0
 21 23  1  0  0  0  0
 23 24  1  0  0  0  0
 23 55  1  0  0  0  0
 24 25  1  0  0  0  0
 24 32  1  0  0  0  0
 24 56  1  0  0  0  0
 25 26  1  0  0  0  0
 25 57  1  0  0  0  0
 25 58  1  0  0  0  0
 26 27  1  0  0  0  0
 26 31  2  0  0  0  0
 27 28  2  0  0  0  0
 27 59  1  0  0  0  0
 28 29  1  0  0  0  0
 28 60  1  0  0  0  0
 29 30  2  0  0  0  0
 29 61  1  0  0  0  0
 30 31  1  0  0  0  0
 30 62  1  0  0  0  0
 31 63  1  0  0  0  0
 32 33  1  0  0  0  0
 32 34  1  0  0  0  0
 32 64  1  0  0  0  0
 33 65  1  0  0  0  0
 34 35  1  0  0  0  0
 34 66  1  0  0  0  0
 34 67  1  0  0  0  0
 35 36  1  0  0  0  0
 35 68  1  0  0  0  0
 35 69  1  0  0  0  0
 36 37  1  0  0  0  0
 36 70  1  0  0  0  0
 36 71  1  0  0  0  0
 37 38  1  0  0  0  0
 37 72  1  0  0  0  0
 37 73  1  0  0  0  0
 38 39  1  0  0  0  0
 38 40  1  0  0  0  0
 38 41  1  0  0  0  0
M  CHG  1  35   1
M  END
>  <PARENT_CMPD_ID>
CHEMBL564530

>  <STANDARD_TYPE>
IC50

>  <RELATION>
=

>  <STANDARD_VALUE>
3

>  <STANDARD_UNITS>
nM

>  <COMPOUND_KEY>
7

>  <PUBMED_ID>
19406640

>  <JOURNAL>
Bioorg. Med. Chem. Lett.

>  <YEAR>
2009

>  <VOLUME>
19

>  <FIRST_PAGE>
3674

>  <Company>
GSK

>  <idx>
308

>  <Model>
Valid

>  <target>
8.5228786

>  <des_pred_mlr>
7.0482702

>  <RF_Canvas>
7.83253

>  <DNN_Canvas>
7.5607438

>  <pred_CoMFA>
6.9945998

>  <pred_COMSIA>
6.4646001

>  <pred_abm5>
6.9398046

>  <pred_ff8>
8.0498304

>  <pred_gau6>
6.5844326

>  <CID>
BACE_308

>  <active>
1

>  <des_class_bayes>
0

>  <maacs_class_bayes>
1

>  <radial_class_bayes>
1

>  <dend_class_bayes>
1

>  <molprint_class_bayes>
1

>  <RF_canvas>
1

>  <DNN_canvas>
1

$$$$
CHEMBL1210360
  MOE2015           3D

 83 86  0  0  1  0  0  0  0  0999 V2000
   29.2770   10.7980   21.6070 C   0  0  0  0  0  0  0  0  0  0  0  0
   29.0640   12.1760   21.0100 C   0  0  0  0  0  0  0  0  0  0  0  0
   29.2690   13.1540   22.0680 O   0  0  0  0  0  0  0  0  0  0  0  0
   28.1260   13.5140   22.8260 C   0  0  0  0  0  0  0  0  0  0  0  0
   28.2960   14.5110   23.7770 C   0  0  0  0  0  0  0  0  0  0  0  0
   27.2450   14.9490   24.5510 C   0  0  0  0  0  0  0  0  0  0  0  0
   25.9890   14.4010   24.4060 C   0  0  0  0  0  0  0  0  0  0  0  0
   25.8120   13.4090   23.4600 C   0  0  0  0  0  0  0  0  0  0  0  0
   26.8590   12.9700   22.6640 C   0  0  0  0  0  0  0  0  0  0  0  0
   24.4670   12.8370   23.2970 C   0  0  0  0  0  0  0  0  0  0  0  0
   23.4860   13.5710   23.2770 O   0  0  0  0  0  0  0  0  0  0  0  0
   24.4130   11.4770   23.1530 N   0  0  0  0  0  0  0  0  0  0  0  0
   23.1870   10.8210   22.7430 C   0  0  3  0  0  0  0  0  0  0  0  0
   23.5020    9.8670   21.5980 C   0  0  0  0  0  0  0  0  0  0  0  0
   24.3520   10.4960   20.5300 C   0  0  0  0  0  0  0  0  0  0  0  0
   23.9740   11.6980   19.9550 C   0  0  0  0  0  0  0  0  0  0  0  0
   24.7830   12.2580   18.9800 C   0  0  0  0  0  0  0  0  0  0  0  0
   25.9490   11.6360   18.5770 C   0  0  0  0  0  0  0  0  0  0  0  0
   26.3280   10.4440   19.1500 C   0  0  0  0  0  0  0  0  0  0  0  0
   25.5260    9.8760   20.1250 C   0  0  0  0  0  0  0  0  0  0  0  0
   22.5430   10.1470   23.9570 C   0  0  3  0  0  0  0  0  0  0  0  0
   21.4100    9.3600   23.5880 O   0  0  0  0  0  0  0  0  0  0  0  0
   21.9980   11.1450   24.9750 C   0  0  0  0  0  0  0  0  0  0  0  0
   21.3680   10.3940   26.0670 N   0  3  0  0  0  0  0  0  0  0  0  0
   20.3480   11.1510   26.8210 C   0  0  0  0  0  0  0  0  0  0  0  0
   27.4120   15.9900   25.5160 N   0  0  0  0  0  0  0  0  0  0  0  0
   26.5810   17.1510   25.3650 C   0  0  0  0  0  0  0  0  0  0  0  0
   25.5980   17.3940   26.2960 C   0  0  0  0  0  0  0  0  0  0  0  0
   24.7960   18.5090   26.1610 C   0  0  0  0  0  0  0  0  0  0  0  0
   24.9840   19.3540   25.0900 C   0  0  0  0  0  0  0  0  0  0  0  0
   25.9650   19.0960   24.1530 C   0  0  0  0  0  0  0  0  0  0  0  0
   26.7820   17.9820   24.2880 C   0  0  0  0  0  0  0  0  0  0  0  0
   28.7460   16.1330   26.5400 S   0  0  0  0  0  0  0  0  0  0  0  0
   29.8550   17.1970   25.6590 C   0  0  0  0  0  0  0  0  0  0  0  0
   29.3320   14.8140   26.6470 O   0  0  0  0  0  0  0  0  0  0  0  0
   28.3110   16.8350   27.7370 O   0  0  0  0  0  0  0  0  0  0  0  0
   29.1300   10.0410   20.8360 H   0  0  0  0  0  0  0  0  0  0  0  0
   28.5630   10.6380   22.4150 H   0  0  0  0  0  0  0  0  0  0  0  0
   30.2910   10.7250   21.9990 H   0  0  0  0  0  0  0  0  0  0  0  0
   28.0500   12.2590   20.6200 H   0  0  0  0  0  0  0  0  0  0  0  0
   29.7780   12.3460   20.2040 H   0  0  0  0  0  0  0  0  0  0  0  0
   29.2730   14.9520   23.9120 H   0  0  0  0  0  0  0  0  0  0  0  0
   25.1640   14.7380   25.0160 H   0  0  0  0  0  0  0  0  0  0  0  0
   26.6890   12.2060   21.9190 H   0  0  0  0  0  0  0  0  0  0  0  0
   25.2380   10.9230   23.3350 H   0  0  0  0  0  0  0  0  0  0  0  0
   22.4540   11.5340   22.3660 H   0  0  0  0  0  0  0  0  0  0  0  0
   22.5640    9.5410   21.1490 H   0  0  0  0  0  0  0  0  0  0  0  0
   24.0320    9.0030   22.0000 H   0  0  0  0  0  0  0  0  0  0  0  0
   23.0630   12.1910   20.2620 H   0  0  0  0  0  0  0  0  0  0  0  0
   24.4980   13.1960   18.5270 H   0  0  0  0  0  0  0  0  0  0  0  0
   26.5640   12.0860   17.8110 H   0  0  0  0  0  0  0  0  0  0  0  0
   27.2410    9.9570   18.8420 H   0  0  0  0  0  0  0  0  0  0  0  0
   25.8170    8.9390   20.5760 H   0  0  0  0  0  0  0  0  0  0  0  0
   23.3480    9.5480   24.3810 H   0  0  0  0  0  0  0  0  0  0  0  0
   20.7490    9.9550   23.2250 H   0  0  0  0  0  0  0  0  0  0  0  0
   21.2600   11.7910   24.4990 H   0  0  0  0  0  0  0  0  0  0  0  0
   22.8130   11.7520   25.3680 H   0  0  0  0  0  0  0  0  0  0  0  0
   22.0910   10.1090   26.7120 H   0  0  0  0  0  0  0  0  0  0  0  0
   20.9270    9.5750   25.6730 H   0  0  0  0  0  0  0  0  0  0  0  0
   19.8630   10.4660   27.5170 H   0  0  0  0  0  0  0  0  0  0  0  0
   20.8350   11.9810   27.3340 H   0  0  0  0  0  0  0  0  0  0  0  0
   25.4550   16.7180   27.1260 H   0  0  0  0  0  0  0  0  0  0  0  0
   24.0270   18.7170   26.8900 H   0  0  0  0  0  0  0  0  0  0  0  0
   24.3580   20.2270   24.9820 H   0  0  0  0  0  0  0  0  0  0  0  0
   26.0970   19.7620   23.3130 H   0  0  0  0  0  0  0  0  0  0  0  0
   27.5570   17.7730   23.5650 H   0  0  0  0  0  0  0  0  0  0  0  0
   30.1980   16.6950   24.7540 H   0  0  0  0  0  0  0  0  0  0  0  0
   30.7110   17.4330   26.2910 H   0  0  0  0  0  0  0  0  0  0  0  0
   29.3380   18.1180   25.3900 H   0  0  0  0  0  0  0  0  0  0  0  0
   17.4480   12.7400   24.3140 C   0  0  0  0  0  0  0  0  0  0  0  0
   16.6880   13.1560   23.6580 H   0  0  0  0  0  0  0  0  0  0  0  0
   17.5030   11.3630   24.5310 C   0  0  0  0  0  0  0  0  0  0  0  0
   16.7870   10.7070   24.0440 H   0  0  0  0  0  0  0  0  0  0  0  0
   18.4780   10.8290   25.3740 C   0  0  0  0  0  0  0  0  0  0  0  0
   18.5210    9.7570   25.5430 H   0  0  0  0  0  0  0  0  0  0  0  0
   19.3980   11.6720   26.0000 C   0  0  0  0  0  0  0  0  0  0  0  0
   19.3420   13.0490   25.7820 C   0  0  0  0  0  0  0  0  0  0  0  0
   20.0580   13.7050   26.2690 H   0  0  0  0  0  0  0  0  0  0  0  0
   18.3670   13.5830   24.9390 C   0  0  0  0  0  0  0  0  0  0  0  0
   18.3080   15.0500   24.7070 C   0  0  0  0  0  0  0  0  0  0  0  0
   17.2840   15.3330   23.8580 F   0  0  0  0  0  0  0  0  0  0  0  0
   19.4800   15.4700   24.1610 F   0  0  0  0  0  0  0  0  0  0  0  0
   18.1040   15.6880   25.8910 F   0  0  0  0  0  0  0  0  0  0  0  0
  1  2  1  0  0  0  0
  1 37  1  0  0  0  0
  1 38  1  0  0  0  0
  1 39  1  0  0  0  0
  2  3  1  0  0  0  0
  2 40  1  0  0  0  0
  2 41  1  0  0  0  0
  3  4  1  0  0  0  0
  4  5  1  0  0  0  0
  4  9  2  0  0  0  0
  5  6  2  0  0  0  0
  5 42  1  0  0  0  0
  6  7  1  0  0  0  0
  6 26  1  0  0  0  0
  7  8  2  0  0  0  0
  7 43  1  0  0  0  0
  8  9  1  0  0  0  0
  8 10  1  0  0  0  0
  9 44  1  0  0  0  0
 10 11  2  0  0  0  0
 10 12  1  0  0  0  0
 12 13  1  0  0  0  0
 12 45  1  0  0  0  0
 13 14  1  0  0  0  0
 13 21  1  0  0  0  0
 13 46  1  0  0  0  0
 14 15  1  0  0  0  0
 14 47  1  0  0  0  0
 14 48  1  0  0  0  0
 15 16  1  0  0  0  0
 15 20  2  0  0  0  0
 16 17  2  0  0  0  0
 16 49  1  0  0  0  0
 17 18  1  0  0  0  0
 17 50  1  0  0  0  0
 18 19  2  0  0  0  0
 18 51  1  0  0  0  0
 19 20  1  0  0  0  0
 19 52  1  0  0  0  0
 20 53  1  0  0  0  0
 21 22  1  0  0  0  0
 21 23  1  0  0  0  0
 21 54  1  0  0  0  0
 22 55  1  0  0  0  0
 23 24  1  0  0  0  0
 23 56  1  0  0  0  0
 23 57  1  0  0  0  0
 24 25  1  0  0  0  0
 24 58  1  0  0  0  0
 24 59  1  0  0  0  0
 25 60  1  0  0  0  0
 25 61  1  0  0  0  0
 25 76  1  0  0  0  0
 26 27  1  0  0  0  0
 26 33  1  0  0  0  0
 27 28  1  0  0  0  0
 27 32  2  0  0  0  0
 28 29  2  0  0  0  0
 28 62  1  0  0  0  0
 29 30  1  0  0  0  0
 29 63  1  0  0  0  0
 30 31  2  0  0  0  0
 30 64  1  0  0  0  0
 31 32  1  0  0  0  0
 31 65  1  0  0  0  0
 32 66  1  0  0  0  0
 33 34  1  0  0  0  0
 33 35  2  0  0  0  0
 33 36  2  0  0  0  0
 34 67  1  0  0  0  0
 34 68  1  0  0  0  0
 34 69  1  0  0  0  0
 70 71  1  0  0  0  0
 70 72  1  0  0  0  0
 70 79  2  0  0  0  0
 72 73  1  0  0  0  0
 72 74  2  0  0  0  0
 74 75  1  0  0  0  0
 74 76  1  0  0  0  0
 76 77  2  0  0  0  0
 77 78  1  0  0  0  0
 77 79  1  0  0  0  0
 79 80  1  0  0  0  0
 80 81  1  0  0  0  0
 80 82  1  0  0  0  0
 80 83  1  0  0  0  0
M  CHG  1  24   1
M  END
>  <PARENT_CMPD_ID>
CHEMBL1210360

>  <STANDARD_TYPE>
IC50

>  <RELATION>
=

>  <STANDARD_VALUE>
3

>  <STANDARD_UNITS>
nM

>  <COMPOUND_KEY>
42

>  <PUBMED_ID>
20579874

>  <JOURNAL>
Bioorg. Med. Chem. Lett.

>  <YEAR>
2010

>  <VOLUME>
20

>  <FIRST_PAGE>
4639

>  <Company>
GSK

>  <idx>
309

>  <Model>
Valid

>  <target>
8.5228786

>  <des_pred_mlr>
7.63908

>  <RF_Canvas>
8.0408373

>  <DNN_Canvas>
7.8744173

>  <pred_CoMFA>
7.5650001

>  <pred_COMSIA>
8.2854996

>  <pred_abm5>
7.9134817

>  <pred_ff8>
7.9636617

>  <pred_gau6>
7.5581636

>  <CID>
BACE_309

>  <active>
1

>  <des_class_bayes>
1

>  <maacs_class_bayes>
1

>  <radial_class_bayes>
1

>  <dend_class_bayes>
1

>  <molprint_class_bayes>
1

>  <RF_canvas>
1

>  <DNN_canvas>
1

$$$$
CHEMBL1916167
  MOE2015           3D

103107  0  0  1  0  0  0  0  0999 V2000
   25.1250   20.4600   25.3770 C   0  0  0  0  0  0  0  0  0  0  0  0
   25.0110   21.5340   25.3990 H   0  0  0  0  0  0  0  0  0  0  0  0
   24.5530   19.6790   26.3820 C   0  0  0  0  0  0  0  0  0  0  0  0
   23.9970   20.1390   27.1860 H   0  0  0  0  0  0  0  0  0  0  0  0
   25.8500   19.8520   24.3350 C   0  0  0  0  0  0  0  0  0  0  0  0
   23.1870   11.8460   20.3250 C   0  0  0  0  0  0  0  0  0  0  0  0
   26.2880   20.4650   23.5610 H   0  0  0  0  0  0  0  0  0  0  0  0
   22.2260   12.1450   20.7180 H   0  0  0  0  0  0  0  0  0  0  0  0
   25.1040   10.4330   20.3920 C   0  0  0  0  0  0  0  0  0  0  0  0
   24.7120   18.2920   26.3300 C   0  0  0  0  0  0  0  0  0  0  0  0
   25.6580    9.6180   20.8340 H   0  0  0  0  0  0  0  0  0  0  0  0
   24.9360   12.1640   18.6930 C   0  0  0  0  0  0  0  0  0  0  0  0
   24.2700   17.6760   27.0990 H   0  0  0  0  0  0  0  0  0  0  0  0
   25.3360   12.6830   17.8350 H   0  0  0  0  0  0  0  0  0  0  0  0
   26.0110   18.4630   24.2890 C   0  0  0  0  0  0  0  0  0  0  0  0
   23.8700   10.7920   20.9260 C   0  0  0  0  0  0  0  0  0  0  0  0
   23.7120   12.5220   19.2320 C   0  0  0  0  0  0  0  0  0  0  0  0
   26.5700   17.9990   23.4900 H   0  0  0  0  0  0  0  0  0  0  0  0
   25.6390   11.1160   19.2860 C   0  0  0  0  0  0  0  0  0  0  0  0
   27.1750   13.4880   23.6660 C   0  0  0  0  0  0  0  0  0  0  0  0
   29.7210   15.1070   22.9300 C   0  0  0  0  0  0  0  0  0  0  0  0
   23.6640   13.1990   23.8080 C   0  0  0  0  0  0  0  0  0  0  0  0
   27.2350   14.1150   21.3400 C   0  0  0  0  0  0  0  0  0  0  0  0
   27.5580   15.1550   21.2900 H   0  0  0  0  0  0  0  0  0  0  0  0
   27.3370   13.6550   20.3570 H   0  0  0  0  0  0  0  0  0  0  0  0
   20.4890   11.9020   25.1990 C   0  0  0  0  0  0  0  0  0  0  0  0
   25.4350   17.6910   25.2960 C   0  0  0  0  0  0  0  0  0  0  0  0
   20.8500   12.9300   25.1550 H   0  0  0  0  0  0  0  0  0  0  0  0
   20.0890   11.6150   24.2260 H   0  0  0  0  0  0  0  0  0  0  0  0
   25.8080   13.9890   21.8800 C   0  0  0  0  0  0  0  0  0  0  0  0
   25.3190   13.1130   21.4530 H   0  0  0  0  0  0  0  0  0  0  0  0
   25.2320   14.8820   21.6350 H   0  0  0  0  0  0  0  0  0  0  0  0
   20.1540   11.0320   27.3770 C   0  0  0  0  0  0  0  0  0  0  0  0
   19.4610   10.5130   28.0390 H   0  0  0  0  0  0  0  0  0  0  0  0
   20.7690   11.7180   27.9600 H   0  0  0  0  0  0  0  0  0  0  0  0
   19.4070   11.7700   26.2720 C   0  0  3  0  0  0  0  0  0  0  0  0
   18.9590   12.7220   26.5570 H   0  0  0  0  0  0  0  0  0  0  0  0
   21.6380   10.9530   25.6010 C   0  0  3  0  0  0  0  0  0  0  0  0
   22.4980   11.5110   25.9720 H   0  0  0  0  0  0  0  0  0  0  0  0
   27.9980   13.3320   22.4170 C   0  0  3  0  0  0  0  0  0  0  0  0
   31.1870   15.4700   22.9610 C   0  0  0  0  0  0  0  0  0  0  0  0
   31.7790   14.6180   22.6270 H   0  0  0  0  0  0  0  0  0  0  0  0
   31.4740   15.7350   23.9780 H   0  0  0  0  0  0  0  0  0  0  0  0
   31.3650   16.3180   22.3000 H   0  0  0  0  0  0  0  0  0  0  0  0
   23.2770   10.0620   22.1220 C   0  0  0  0  0  0  0  0  0  0  0  0
   24.0490    9.4200   22.5450 H   0  0  0  0  0  0  0  0  0  0  0  0
   22.4480    9.4490   21.7690 H   0  0  0  0  0  0  0  0  0  0  0  0
   27.8650   11.8720   21.9640 C   0  0  3  0  0  0  0  0  0  0  0  0
   27.0780   11.8930   20.6780 C   0  0  0  0  0  0  0  0  0  0  0  0
   26.9540   10.8740   20.3110 H   0  0  0  0  0  0  0  0  0  0  0  0
   27.8170   12.7110   19.6490 C   0  0  0  0  0  0  0  0  0  0  0  0
   27.2490   12.7260   18.7200 H   0  0  0  0  0  0  0  0  0  0  0  0
   28.7970   12.2680   19.4690 H   0  0  0  0  0  0  0  0  0  0  0  0
   25.5880   16.1920   25.2840 C   0  0  0  0  0  0  0  0  0  0  0  0
   27.9410   13.7300   20.0160 H   0  0  0  0  0  0  0  0  0  0  0  0
   26.0980   12.3350   20.8580 H   0  0  0  0  0  0  0  0  0  0  0  0
   25.5430   15.8240   26.3090 H   0  0  0  0  0  0  0  0  0  0  0  0
   27.2880   11.3610   22.7350 H   0  0  0  0  0  0  0  0  0  0  0  0
   26.5550   15.9390   24.8500 H   0  0  0  0  0  0  0  0  0  0  0  0
   24.4840   15.5150   24.4650 C   0  0  0  0  0  0  0  0  0  0  0  0
   24.4070   15.9970   23.4900 H   0  0  0  0  0  0  0  0  0  0  0  0
   23.5340   15.6050   24.9910 H   0  0  0  0  0  0  0  0  0  0  0  0
   24.8240   14.0400   24.2780 C   0  0  3  0  0  0  0  0  0  0  0  0
   25.1090   13.7090   25.2770 H   0  0  0  0  0  0  0  0  0  0  0  0
   22.2260   10.1380   24.4290 C   0  0  3  0  0  0  0  0  0  0  0  0
   23.1120    9.6280   24.8060 H   0  0  0  0  0  0  0  0  0  0  0  0
   29.0960   11.0120   21.7030 C   0  0  0  0  0  0  0  0  0  0  0  0
   29.7880   11.0740   22.5430 H   0  0  0  0  0  0  0  0  0  0  0  0
   29.6680   11.3510   20.8390 H   0  0  0  0  0  0  0  0  0  0  0  0
   28.7150   10.0040   21.5410 H   0  0  0  0  0  0  0  0  0  0  0  0
   22.7500   10.9840   23.2440 C   0  0  3  0  0  0  0  0  0  0  0  0
   17.1490   11.5140   25.3650 C   0  0  0  0  0  0  0  0  0  0  0  0
   21.9310   11.5870   22.8520 H   0  0  0  0  0  0  0  0  0  0  0  0
   21.0040   10.0590   26.6180 N   0  3  0  0  0  0  0  0  0  0  0  0
   20.4440    9.3410   26.1810 H   0  0  0  0  0  0  0  0  0  0  0  0
   21.6960    9.6290   27.2150 H   0  0  0  0  0  0  0  0  0  0  0  0
   25.9260   13.8440   23.3410 N   0  0  0  0  0  0  0  0  0  0  0  0
   29.3680   13.8690   22.5250 N   0  0  0  0  0  0  0  0  0  0  0  0
   30.1200   13.2450   22.2690 H   0  0  0  0  0  0  0  0  0  0  0  0
   16.4130   11.4910   26.1690 H   0  0  0  0  0  0  0  0  0  0  0  0
   23.8270   11.8630   23.7040 N   0  0  0  0  0  0  0  0  0  0  0  0
   24.7190   11.4580   23.9510 H   0  0  0  0  0  0  0  0  0  0  0  0
   27.5680   13.2710   24.7900 O   0  0  0  0  0  0  0  0  0  0  0  0
   28.9360   15.9740   23.2820 O   0  0  0  0  0  0  0  0  0  0  0  0
   22.5950   13.7100   23.5250 O   0  0  0  0  0  0  0  0  0  0  0  0
   17.3390   12.5480   25.0770 H   0  0  0  0  0  0  0  0  0  0  0  0
   21.2320    9.2070   23.9900 O   0  0  0  0  0  0  0  0  0  0  0  0
   20.4810    9.7130   23.6710 H   0  0  0  0  0  0  0  0  0  0  0  0
   23.0210   13.5220   18.6820 F   0  0  0  0  0  0  0  0  0  0  0  0
   26.8390   10.7710   18.7780 F   0  0  0  0  0  0  0  0  0  0  0  0
   18.3730   10.8990   25.8080 O   0  0  0  0  0  0  0  0  0  0  0  0
   15.6860    9.4190   22.0960 C   0  0  0  0  0  0  0  0  0  0  0  0
   15.3020    8.8690   21.2400 H   0  0  0  0  0  0  0  0  0  0  0  0
   15.5460    8.8930   23.3800 C   0  0  0  0  0  0  0  0  0  0  0  0
   15.0540    7.9340   23.5250 H   0  0  0  0  0  0  0  0  0  0  0  0
   16.0380    9.5970   24.4790 C   0  0  0  0  0  0  0  0  0  0  0  0
   15.9290    9.1870   25.4800 H   0  0  0  0  0  0  0  0  0  0  0  0
   16.6700   10.8270   24.2930 C   0  0  0  0  0  0  0  0  0  0  0  0
   16.8090   11.3530   23.0090 C   0  0  0  0  0  0  0  0  0  0  0  0
   17.3010   12.3110   22.8640 H   0  0  0  0  0  0  0  0  0  0  0  0
   16.3170   10.6490   21.9100 C   0  0  0  0  0  0  0  0  0  0  0  0
   16.4530   11.1610   20.6580 C   0  0  0  0  0  0  0  0  0  0  0  0
   16.5690   11.5980   19.5890 N   0  0  0  0  0  0  0  0  0  0  0  0
  1  2  1  0  0  0  0
  1  3  2  0  0  0  0
  1  5  1  0  0  0  0
  3  4  1  0  0  0  0
  3 10  1  0  0  0  0
  5  7  1  0  0  0  0
  5 15  2  0  0  0  0
  6  8  1  0  0  0  0
  6 16  2  0  0  0  0
  6 17  1  0  0  0  0
  9 11  1  0  0  0  0
  9 16  1  0  0  0  0
  9 19  2  0  0  0  0
 10 13  1  0  0  0  0
 10 27  2  0  0  0  0
 12 14  1  0  0  0  0
 12 17  2  0  0  0  0
 12 19  1  0  0  0  0
 15 18  1  0  0  0  0
 15 27  1  0  0  0  0
 16 45  1  0  0  0  0
 17 89  1  0  0  0  0
 19 90  1  0  0  0  0
 20 40  1  0  0  0  0
 20 77  1  0  0  0  0
 20 83  2  0  0  0  0
 21 41  1  0  0  0  0
 21 78  1  0  0  0  0
 21 84  2  0  0  0  0
 22 63  1  0  0  0  0
 22 81  1  0  0  0  0
 22 85  2  0  0  0  0
 23 24  1  0  0  0  0
 23 25  1  0  0  0  0
 23 30  1  0  0  0  0
 23 40  1  0  0  0  0
 26 28  1  0  0  0  0
 26 29  1  0  0  0  0
 26 36  1  0  0  0  0
 26 38  1  0  0  0  0
 27 54  1  0  0  0  0
 30 31  1  0  0  0  0
 30 32  1  0  0  0  0
 30 77  1  0  0  0  0
 33 34  1  0  0  0  0
 33 35  1  0  0  0  0
 33 36  1  0  0  0  0
 33 74  1  0  0  0  0
 36 37  1  0  0  0  0
 36 91  1  0  0  0  0
 38 39  1  0  0  0  0
 38 65  1  0  0  0  0
 38 74  1  0  0  0  0
 40 48  1  0  0  0  0
 40 78  1  0  0  0  0
 41 42  1  0  0  0  0
 41 43  1  0  0  0  0
 41 44  1  0  0  0  0
 45 46  1  0  0  0  0
 45 47  1  0  0  0  0
 45 71  1  0  0  0  0
 48 49  1  0  0  0  0
 48 58  1  0  0  0  0
 48 67  1  0  0  0  0
 49 50  1  0  0  0  0
 49 51  1  0  0  0  0
 49 56  1  0  0  0  0
 51 52  1  0  0  0  0
 51 53  1  0  0  0  0
 51 55  1  0  0  0  0
 54 57  1  0  0  0  0
 54 59  1  0  0  0  0
 54 60  1  0  0  0  0
 60 61  1  0  0  0  0
 60 62  1  0  0  0  0
 60 63  1  0  0  0  0
 63 64  1  0  0  0  0
 63 77  1  0  0  0  0
 65 66  1  0  0  0  0
 65 71  1  0  0  0  0
 65 87  1  0  0  0  0
 67 68  1  0  0  0  0
 67 69  1  0  0  0  0
 67 70  1  0  0  0  0
 71 73  1  0  0  0  0
 71 81  1  0  0  0  0
 72 80  1  0  0  0  0
 72 86  1  0  0  0  0
 72 91  1  0  0  0  0
 72 98  1  0  0  0  0
 74 75  1  0  0  0  0
 74 76  1  0  0  0  0
 78 79  1  0  0  0  0
 81 82  1  0  0  0  0
 87 88  1  0  0  0  0
 92 93  1  0  0  0  0
 92 94  1  0  0  0  0
 92101  2  0  0  0  0
 94 95  1  0  0  0  0
 94 96  2  0  0  0  0
 96 97  1  0  0  0  0
 96 98  1  0  0  0  0
 98 99  2  0  0  0  0
 99100  1  0  0  0  0
 99101  1  0  0  0  0
101102  1  0  0  0  0
102103  3  0  0  0  0
M  CHG  1  74   1
M  END
>  <PARENT_CMPD_ID>
CHEMBL1916167

>  <STANDARD_TYPE>
IC50

>  <RELATION>
=

>  <STANDARD_VALUE>
3

>  <STANDARD_UNITS>
nM

>  <COMPOUND_KEY>
31c

>  <PUBMED_ID>
21782431

>  <JOURNAL>
Bioorg.Med.Chem.Lett.

>  <YEAR>
2011

>  <VOLUME>
21

>  <FIRST_PAGE>
6916

>  <Company>
BMS

>  <idx>
310

>  <Model>
Valid

>  <target>
8.5228786

>  <des_pred_mlr>
7.9435

>  <RF_Canvas>
7.8572598

>  <DNN_Canvas>
8.1570501

>  <pred_CoMFA>
9.4735003

>  <pred_COMSIA>
9.1457996

>  <pred_abm5>
10.015957

>  <pred_ff8>
9.0678377

>  <pred_gau6>
10.013941

>  <CID>
BACE_310

>  <active>
1

>  <des_class_bayes>
1

>  <maacs_class_bayes>
1

>  <radial_class_bayes>
1

>  <dend_class_bayes>
1

>  <molprint_class_bayes>
1

>  <RF_canvas>
1

>  <DNN_canvas>
1

$$$$
22380629_60m
  MOE2015           3D
HYDROLASE/HYDROLASE INHIBITOR
 72 74  0  0  1  0  0  0  0  0999 V2000
   29.9870   10.1730   19.6760 F   0  0  0  0  0  0  0  0  0  0  0  0
   29.2650   10.2280   20.8070 C   0  0  0  0  0  0  0  0  0  0  0  0
   28.4830    9.1340   20.8490 F   0  0  0  0  0  0  0  0  0  0  0  0
   30.1230   10.1420   21.8400 F   0  0  0  0  0  0  0  0  0  0  0  0
   28.4340   11.4940   20.8880 C   0  0  2  0  0  0  0  0  0  0  0  0
   27.8720   11.5170   21.8290 H   0  0  0  0  0  0  0  0  0  0  0  0
   27.5890   11.5670   19.7340 O   0  0  0  0  0  0  0  0  0  0  0  0
   26.2340   11.5030   19.9210 C   0  0  0  0  0  0  0  0  0  0  0  0
   25.4650   12.2470   19.0190 C   0  0  0  0  0  0  0  0  0  0  0  0
   24.0780   12.2000   19.1440 C   0  0  0  0  0  0  0  0  0  0  0  0
   23.4550   11.4450   20.1290 C   0  0  0  0  0  0  0  0  0  0  0  0
   22.3700   11.4580   20.1860 H   0  0  0  0  0  0  0  0  0  0  0  0
   24.2160   10.6980   21.0250 C   0  0  0  0  0  0  0  0  0  0  0  0
   25.6100   10.7140   20.8940 C   0  0  0  0  0  0  0  0  0  0  0  0
   26.2060   10.0950   21.5600 H   0  0  0  0  0  0  0  0  0  0  0  0
   23.5610    9.9350   22.1520 C   0  0  0  0  0  0  0  0  0  0  0  0
   24.2920    9.2690   22.6290 H   0  0  0  0  0  0  0  0  0  0  0  0
   22.7950    9.2790   21.7200 H   0  0  0  0  0  0  0  0  0  0  0  0
   22.9360   10.8610   23.2130 C   0  0  3  0  0  0  0  0  0  0  0  0
   22.1540   11.4410   22.7030 H   0  0  0  0  0  0  0  0  0  0  0  0
   22.2460   10.0780   24.3590 C   0  0  3  0  0  0  0  0  0  0  0  0
   22.9850    9.4570   24.8790 H   0  0  0  0  0  0  0  0  0  0  0  0
   21.5350   11.0100   25.3740 C   0  0  3  0  0  0  0  0  0  0  0  0
   20.7260   11.5260   24.8450 H   0  0  0  0  0  0  0  0  0  0  0  0
   22.4630   11.9960   26.0510 C   0  0  0  0  0  0  0  0  0  0  0  0
   23.2640   11.4950   26.6030 H   0  0  0  0  0  0  0  0  0  0  0  0
   21.9300   12.6580   26.7390 H   0  0  0  0  0  0  0  0  0  0  0  0
   23.2130   13.0350   24.8290 S   0  0  0  0  0  0  0  0  0  0  0  0
   23.9780   11.8260   23.7820 C   0  0  0  0  0  0  0  0  0  0  0  0
   24.4830   12.4070   23.0040 H   0  0  0  0  0  0  0  0  0  0  0  0
   24.7410   11.3040   24.3700 H   0  0  0  0  0  0  0  0  0  0  0  0
   24.2460   13.8160   25.4670 O   0  0  0  0  0  0  0  0  0  0  0  0
   22.1640   13.6710   24.0620 O   0  0  0  0  0  0  0  0  0  0  0  0
   20.8640   10.1200   26.4050 N   0  3  0  0  0  0  0  0  0  0  0  0
   21.5580    9.6380   26.9910 H   0  0  0  0  0  0  0  0  0  0  0  0
   20.4250    9.3650   25.8480 H   0  0  0  0  0  0  0  0  0  0  0  0
   19.8210   10.7460   27.2790 C   0  0  0  0  0  0  0  0  0  0  0  0
   20.3430   11.4300   27.9570 H   0  0  0  0  0  0  0  0  0  0  0  0
   19.4110    9.9360   27.8920 H   0  0  0  0  0  0  0  0  0  0  0  0
   18.7160   11.4320   26.5330 C   0  0  0  0  0  0  0  0  0  0  0  0
   17.8010   10.6900   25.7790 C   0  0  0  0  0  0  0  0  0  0  0  0
   17.8900    9.6050   25.7700 H   0  0  0  0  0  0  0  0  0  0  0  0
   16.7800   11.2980   25.0340 C   0  0  0  0  0  0  0  0  0  0  0  0
   16.7130   12.6920   25.0670 C   0  0  0  0  0  0  0  0  0  0  0  0
   15.9570   13.2380   24.5090 H   0  0  0  0  0  0  0  0  0  0  0  0
   17.6110   13.4430   25.8180 C   0  0  0  0  0  0  0  0  0  0  0  0
   17.5320   14.5280   25.8250 H   0  0  0  0  0  0  0  0  0  0  0  0
   18.6060   12.8180   26.5500 C   0  0  0  0  0  0  0  0  0  0  0  0
   19.2970   13.4330   27.1240 H   0  0  0  0  0  0  0  0  0  0  0  0
   15.8110   10.4430   24.2150 C   0  0  0  0  0  0  0  0  0  0  0  0
   15.1590    9.3770   25.1070 C   0  0  0  0  0  0  0  0  0  0  0  0
   14.6430    9.8340   25.9600 H   0  0  0  0  0  0  0  0  0  0  0  0
   15.8840    8.6600   25.5080 H   0  0  0  0  0  0  0  0  0  0  0  0
   14.4180    8.7900   24.5500 H   0  0  0  0  0  0  0  0  0  0  0  0
   14.6680   11.2400   23.5690 C   0  0  0  0  0  0  0  0  0  0  0  0
   14.0680   11.7690   24.3200 H   0  0  0  0  0  0  0  0  0  0  0  0
   13.9850   10.5830   23.0170 H   0  0  0  0  0  0  0  0  0  0  0  0
   15.0410   11.9800   22.8520 H   0  0  0  0  0  0  0  0  0  0  0  0
   16.5810    9.7500   23.0840 C   0  0  0  0  0  0  0  0  0  0  0  0
   17.3620    9.0810   23.4630 H   0  0  0  0  0  0  0  0  0  0  0  0
   17.0710   10.4820   22.4300 H   0  0  0  0  0  0  0  0  0  0  0  0
   15.9140    9.1430   22.4600 H   0  0  0  0  0  0  0  0  0  0  0  0
   21.2350    9.1970   23.8600 O   0  0  0  0  0  0  0  0  0  0  0  0
   20.7200    9.6420   23.1590 H   0  0  0  0  0  0  0  0  0  0  0  0
   23.3200   12.9080   18.3000 F   0  0  0  0  0  0  0  0  0  0  0  0
   26.0740   13.0120   18.0340 N   0  0  0  0  0  0  0  0  0  0  0  0
   25.5150   13.5580   17.3920 H   0  0  0  0  0  0  0  0  0  0  0  0
   27.0840   13.0080   17.9680 H   0  0  0  0  0  0  0  0  0  0  0  0
   29.3310   12.7230   20.8610 C   0  0  0  0  0  0  0  0  0  0  0  0
   29.9100   12.7720   19.9320 H   0  0  0  0  0  0  0  0  0  0  0  0
   30.0250   12.7320   21.7070 H   0  0  0  0  0  0  0  0  0  0  0  0
   28.7270   13.6360   20.9000 H   0  0  0  0  0  0  0  0  0  0  0  0
  1  2  1  0  0  0  0
  2  3  1  0  0  0  0
  2  4  1  0  0  0  0
  2  5  1  0  0  0  0
  5  6  1  0  0  0  0
  5  7  1  0  0  0  0
  5 69  1  0  0  0  0
  7  8  1  0  0  0  0
  8  9  2  0  0  0  0
  8 14  1  0  0  0  0
  9 10  1  0  0  0  0
  9 66  1  0  0  0  0
 10 11  2  0  0  0  0
 10 65  1  0  0  0  0
 11 12  1  0  0  0  0
 11 13  1  0  0  0  0
 13 14  2  0  0  0  0
 13 16  1  0  0  0  0
 14 15  1  0  0  0  0
 16 17  1  0  0  0  0
 16 18  1  0  0  0  0
 16 19  1  0  0  0  0
 19 20  1  0  0  0  0
 19 21  1  0  0  0  0
 19 29  1  0  0  0  0
 21 22  1  0  0  0  0
 21 23  1  0  0  0  0
 21 63  1  0  0  0  0
 23 24  1  0  0  0  0
 23 25  1  0  0  0  0
 23 34  1  0  0  0  0
 25 26  1  0  0  0  0
 25 27  1  0  0  0  0
 25 28  1  0  0  0  0
 28 29  1  0  0  0  0
 28 32  2  0  0  0  0
 28 33  2  0  0  0  0
 29 30  1  0  0  0  0
 29 31  1  0  0  0  0
 34 35  1  0  0  0  0
 34 36  1  0  0  0  0
 34 37  1  0  0  0  0
 37 38  1  0  0  0  0
 37 39  1  0  0  0  0
 37 40  1  0  0  0  0
 40 41  2  0  0  0  0
 40 48  1  0  0  0  0
 41 42  1  0  0  0  0
 41 43  1  0  0  0  0
 43 44  2  0  0  0  0
 43 50  1  0  0  0  0
 44 45  1  0  0  0  0
 44 46  1  0  0  0  0
 46 47  1  0  0  0  0
 46 48  2  0  0  0  0
 48 49  1  0  0  0  0
 50 51  1  0  0  0  0
 50 55  1  0  0  0  0
 50 59  1  0  0  0  0
 51 52  1  0  0  0  0
 51 53  1  0  0  0  0
 51 54  1  0  0  0  0
 55 56  1  0  0  0  0
 55 57  1  0  0  0  0
 55 58  1  0  0  0  0
 59 60  1  0  0  0  0
 59 61  1  0  0  0  0
 59 62  1  0  0  0  0
 63 64  1  0  0  0  0
 66 67  1  0  0  0  0
 66 68  1  0  0  0  0
 69 70  1  0  0  0  0
 69 71  1  0  0  0  0
 69 72  1  0  0  0  0
M  CHG  1  34   1
M  END
>  <PARENT_CMPD_ID>
22380629_60m

>  <STANDARD_TYPE>
IC50

>  <RELATION>
=

>  <STANDARD_VALUE>
3

>  <STANDARD_UNITS>
nM

>  <COMPOUND_KEY>
60m

>  <PUBMED_ID>
22380629

>  <JOURNAL>
J.Med.Chem.

>  <YEAR>
2012

>  <VOLUME>
55

>  <FIRST_PAGE>
3364

>  <Company>
Novartis

>  <idx>
311

>  <Model>
Valid

>  <target>
8.5228786

>  <des_pred_mlr>
7.4596701

>  <RF_Canvas>
7.6662397

>  <DNN_Canvas>
7.5463128

>  <pred_CoMFA>
7.9509001

>  <pred_COMSIA>
7.3253999

>  <pred_abm5>
7.8834152

>  <pred_ff8>
7.8567052

>  <pred_gau6>
7.6502109

>  <CID>
BACE_311

>  <active>
1

>  <des_class_bayes>
1

>  <maacs_class_bayes>
1

>  <radial_class_bayes>
0

>  <dend_class_bayes>
1

>  <molprint_class_bayes>
1

>  <RF_canvas>
1

>  <DNN_canvas>
1

$$$$
CHEMBL1076905
  MOE2015           3D

110113  0  0  1  0  0  0  0  0999 V2000
   30.1440   13.4960   22.1610 O   0  0  0  0  0  0  0  0  0  0  0  0
   29.1330   12.8860   22.3900 C   0  0  0  0  0  0  0  0  0  0  0  0
   28.8940   11.6370   22.0460 N   0  0  0  0  0  0  0  0  0  0  0  0
   29.8730   10.8790   21.2910 C   0  0  3  0  0  0  0  0  0  0  0  0
   30.6580   10.0790   22.2730 C   0  0  0  0  0  0  0  0  0  0  0  0
   30.0260    9.1230   23.0860 C   0  0  0  0  0  0  0  0  0  0  0  0
   30.8080    8.3750   23.9630 C   0  0  0  0  0  0  0  0  0  0  0  0
   32.1940    8.5790   24.0520 C   0  0  0  0  0  0  0  0  0  0  0  0
   32.8310    9.5330   23.2690 C   0  0  0  0  0  0  0  0  0  0  0  0
   32.0360   10.2890   22.3900 C   0  0  0  0  0  0  0  0  0  0  0  0
   29.2090   10.0380   20.1920 C   0  0  0  0  0  0  0  0  0  0  0  0
   28.0590   13.4960   23.1700 C   0  0  0  0  0  0  0  0  0  0  0  0
   28.3540   14.4690   24.1070 C   0  0  0  0  0  0  0  0  0  0  0  0
   27.2770   14.9310   24.8510 C   0  0  0  0  0  0  0  0  0  0  0  0
   27.4540   15.9100   25.8540 N   0  0  0  0  0  0  0  0  0  0  0  0
   28.8010   16.1540   26.5840 S   0  0  0  0  0  0  0  0  0  0  0  0
   28.3600   16.8020   27.8440 O   0  0  0  0  0  0  0  0  0  0  0  0
   29.6490   17.3480   25.7380 C   0  0  0  0  0  0  0  0  0  0  0  0
   29.6030   14.9590   26.6260 O   0  0  0  0  0  0  0  0  0  0  0  0
   26.2480   16.7010   26.2220 C   0  0  0  0  0  0  0  0  0  0  0  0
   25.9990   14.4240   24.6290 C   0  0  0  0  0  0  0  0  0  0  0  0
   26.7900   12.9620   22.9450 C   0  0  0  0  0  0  0  0  0  0  0  0
   25.7190   13.4300   23.6920 C   0  0  0  0  0  0  0  0  0  0  0  0
   24.3220   12.8810   23.4610 C   0  0  0  0  0  0  0  0  0  0  0  0
   23.3930   13.6600   23.4950 O   0  0  0  0  0  0  0  0  0  0  0  0
   24.1200   11.5710   23.2830 N   0  0  0  0  0  0  0  0  0  0  0  0
   22.8270   10.9460   23.0420 C   0  0  3  0  0  0  0  0  0  0  0  0
   22.9910    9.7810   22.0830 C   0  0  0  0  0  0  0  0  0  0  0  0
   24.3080    9.7320   21.4880 O   0  0  0  0  0  0  0  0  0  0  0  0
   22.2290   10.3110   24.2800 C   0  0  3  0  0  0  0  0  0  0  0  0
   23.1760    9.3680   24.8210 O   0  0  0  0  0  0  0  0  0  0  0  0
   21.7280   11.4260   25.2080 C   0  0  0  0  0  0  0  0  0  0  0  0
   20.5110   10.9420   25.9880 C   0  0  3  0  0  0  0  0  0  0  0  0
   20.6890   11.5370   27.3850 C   0  0  0  0  0  0  0  0  0  0  0  0
   19.2080   11.3630   25.3330 C   0  0  0  0  0  0  0  0  0  0  0  0
   19.1030   12.5270   24.9740 O   0  0  0  0  0  0  0  0  0  0  0  0
   18.1880   10.5150   25.0930 N   0  0  0  0  0  0  0  0  0  0  0  0
   16.9740   11.0650   24.5000 C   0  0  3  0  0  0  0  0  0  0  0  0
   15.8390   10.0730   24.4700 C   0  0  0  0  0  0  0  0  0  0  0  0
   15.3840    9.7490   23.0600 C   0  0  0  0  0  0  0  0  0  0  0  0
   16.0720    8.8650   25.3540 C   0  0  0  0  0  0  0  0  0  0  0  0
   16.5710   12.1970   25.4040 C   0  0  0  0  0  0  0  0  0  0  0  0
   16.5120   11.9470   26.5970 O   0  0  0  0  0  0  0  0  0  0  0  0
   16.2440   13.4010   24.9320 N   0  0  0  0  0  0  0  0  0  0  0  0
   15.8590   14.4670   25.8600 C   0  0  0  0  0  0  0  0  0  0  0  0
   15.9190   15.7680   25.1060 C   0  0  0  0  0  0  0  0  0  0  0  0
   14.8200   16.1790   24.3330 C   0  0  0  0  0  0  0  0  0  0  0  0
   14.8580   17.3710   23.5960 C   0  0  0  0  0  0  0  0  0  0  0  0
   16.0220   18.1470   23.6410 C   0  0  0  0  0  0  0  0  0  0  0  0
   17.1130   17.7270   24.4210 C   0  0  0  0  0  0  0  0  0  0  0  0
   17.0730   16.5380   25.1620 C   0  0  0  0  0  0  0  0  0  0  0  0
   28.0210   11.2030   22.3100 H   0  0  0  0  0  0  0  0  0  0  0  0
   30.5520   11.5360   20.7490 H   0  0  0  0  0  0  0  0  0  0  0  0
   28.9580    8.9720   23.0320 H   0  0  0  0  0  0  0  0  0  0  0  0
   30.3400    7.6260   24.5850 H   0  0  0  0  0  0  0  0  0  0  0  0
   32.7750    7.9840   24.7410 H   0  0  0  0  0  0  0  0  0  0  0  0
   33.8980    9.6880   23.3330 H   0  0  0  0  0  0  0  0  0  0  0  0
   32.5030   11.0540   21.7880 H   0  0  0  0  0  0  0  0  0  0  0  0
   28.5030    9.3410   20.6440 H   0  0  0  0  0  0  0  0  0  0  0  0
   29.9730    9.4810   19.6500 H   0  0  0  0  0  0  0  0  0  0  0  0
   28.6800   10.6950   19.5020 H   0  0  0  0  0  0  0  0  0  0  0  0
   29.3560   14.8450   24.2510 H   0  0  0  0  0  0  0  0  0  0  0  0
   29.0520   18.2590   25.6990 H   0  0  0  0  0  0  0  0  0  0  0  0
   29.8500   17.0020   24.7240 H   0  0  0  0  0  0  0  0  0  0  0  0
   30.5920   17.5530   26.2460 H   0  0  0  0  0  0  0  0  0  0  0  0
   25.4060   16.3890   25.6040 H   0  0  0  0  0  0  0  0  0  0  0  0
   26.4450   17.7610   26.0590 H   0  0  0  0  0  0  0  0  0  0  0  0
   26.0100   16.5330   27.2720 H   0  0  0  0  0  0  0  0  0  0  0  0
   25.1820   14.8210   25.2130 H   0  0  0  0  0  0  0  0  0  0  0  0
   26.6430   12.1950   22.1990 H   0  0  0  0  0  0  0  0  0  0  0  0
   24.9290   10.9670   23.3190 H   0  0  0  0  0  0  0  0  0  0  0  0
   22.1900   11.7490   22.6700 H   0  0  0  0  0  0  0  0  0  0  0  0
   22.2520    9.8300   21.2830 H   0  0  0  0  0  0  0  0  0  0  0  0
   22.8960    8.8300   22.6070 H   0  0  0  0  0  0  0  0  0  0  0  0
   21.3420    9.7100   24.0810 H   0  0  0  0  0  0  0  0  0  0  0  0
   23.9840    9.8480   25.0160 H   0  0  0  0  0  0  0  0  0  0  0  0
   21.4530   12.2960   24.6120 H   0  0  0  0  0  0  0  0  0  0  0  0
   22.5200   11.6990   25.9060 H   0  0  0  0  0  0  0  0  0  0  0  0
   20.4490    9.8540   26.0210 H   0  0  0  0  0  0  0  0  0  0  0  0
   20.7470   12.6230   27.3130 H   0  0  0  0  0  0  0  0  0  0  0  0
   21.6070   11.1530   27.8290 H   0  0  0  0  0  0  0  0  0  0  0  0
   19.8400   11.2590   28.0090 H   0  0  0  0  0  0  0  0  0  0  0  0
   18.2620    9.5330   25.3160 H   0  0  0  0  0  0  0  0  0  0  0  0
   17.1710   11.3590   23.4690 H   0  0  0  0  0  0  0  0  0  0  0  0
   14.9850   10.5700   24.9290 H   0  0  0  0  0  0  0  0  0  0  0  0
   16.1890    9.2440   22.5250 H   0  0  0  0  0  0  0  0  0  0  0  0
   15.1250   10.6720   22.5410 H   0  0  0  0  0  0  0  0  0  0  0  0
   14.5110    9.0980   23.1010 H   0  0  0  0  0  0  0  0  0  0  0  0
   16.9180    8.2940   24.9730 H   0  0  0  0  0  0  0  0  0  0  0  0
   15.1810    8.2380   25.3540 H   0  0  0  0  0  0  0  0  0  0  0  0
   16.2850    9.1950   26.3710 H   0  0  0  0  0  0  0  0  0  0  0  0
   16.2620   13.5770   23.9380 H   0  0  0  0  0  0  0  0  0  0  0  0
   16.5490   14.4940   26.7030 H   0  0  0  0  0  0  0  0  0  0  0  0
   14.8460   14.2950   26.2250 H   0  0  0  0  0  0  0  0  0  0  0  0
   13.9310   15.5660   24.3060 H   0  0  0  0  0  0  0  0  0  0  0  0
   14.0080   17.6830   23.0070 H   0  0  0  0  0  0  0  0  0  0  0  0
   16.0820   19.0660   23.0780 H   0  0  0  0  0  0  0  0  0  0  0  0
   18.0050   18.3360   24.4500 H   0  0  0  0  0  0  0  0  0  0  0  0
   17.9170   16.2290   25.7610 H   0  0  0  0  0  0  0  0  0  0  0  0
   25.0460   11.4410   17.7560 C   0  0  0  0  0  0  0  0  0  0  0  0
   25.2640   11.8670   16.7830 H   0  0  0  0  0  0  0  0  0  0  0  0
   25.7960   10.3850   18.2510 C   0  0  0  0  0  0  0  0  0  0  0  0
   26.8060    9.8930   17.5210 F   0  0  0  0  0  0  0  0  0  0  0  0
   25.5210    9.8310   19.4980 C   0  0  0  0  0  0  0  0  0  0  0  0
   26.1230    9.0030   19.8600 H   0  0  0  0  0  0  0  0  0  0  0  0
   24.4720   10.3340   20.2690 C   0  0  0  0  0  0  0  0  0  0  0  0
   23.7210   11.4060   19.7880 C   0  0  0  0  0  0  0  0  0  0  0  0
   22.9170   11.8570   20.3580 H   0  0  0  0  0  0  0  0  0  0  0  0
   24.0140   11.9440   18.5350 C   0  0  0  0  0  0  0  0  0  0  0  0
   23.2830   12.9690   18.0770 F   0  0  0  0  0  0  0  0  0  0  0  0
  1  2  2  0  0  0  0
  2  3  1  0  0  0  0
  2 12  1  0  0  0  0
  3  4  1  0  0  0  0
  3 52  1  0  0  0  0
  4  5  1  0  0  0  0
  4 11  1  0  0  0  0
  4 53  1  0  0  0  0
  5  6  1  0  0  0  0
  5 10  2  0  0  0  0
  6  7  2  0  0  0  0
  6 54  1  0  0  0  0
  7  8  1  0  0  0  0
  7 55  1  0  0  0  0
  8  9  2  0  0  0  0
  8 56  1  0  0  0  0
  9 10  1  0  0  0  0
  9 57  1  0  0  0  0
 10 58  1  0  0  0  0
 11 59  1  0  0  0  0
 11 60  1  0  0  0  0
 11 61  1  0  0  0  0
 12 13  1  0  0  0  0
 12 22  2  0  0  0  0
 13 14  2  0  0  0  0
 13 62  1  0  0  0  0
 14 15  1  0  0  0  0
 14 21  1  0  0  0  0
 15 16  1  0  0  0  0
 15 20  1  0  0  0  0
 16 17  2  0  0  0  0
 16 18  1  0  0  0  0
 16 19  2  0  0  0  0
 18 63  1  0  0  0  0
 18 64  1  0  0  0  0
 18 65  1  0  0  0  0
 20 66  1  0  0  0  0
 20 67  1  0  0  0  0
 20 68  1  0  0  0  0
 21 23  2  0  0  0  0
 21 69  1  0  0  0  0
 22 23  1  0  0  0  0
 22 70  1  0  0  0  0
 23 24  1  0  0  0  0
 24 25  2  0  0  0  0
 24 26  1  0  0  0  0
 26 27  1  0  0  0  0
 26 71  1  0  0  0  0
 27 28  1  0  0  0  0
 27 30  1  0  0  0  0
 27 72  1  0  0  0  0
 28 29  1  0  0  0  0
 28 73  1  0  0  0  0
 28 74  1  0  0  0  0
 29106  1  0  0  0  0
 30 31  1  0  0  0  0
 30 32  1  0  0  0  0
 30 75  1  0  0  0  0
 31 76  1  0  0  0  0
 32 33  1  0  0  0  0
 32 77  1  0  0  0  0
 32 78  1  0  0  0  0
 33 34  1  0  0  0  0
 33 35  1  0  0  0  0
 33 79  1  0  0  0  0
 34 80  1  0  0  0  0
 34 81  1  0  0  0  0
 34 82  1  0  0  0  0
 35 36  2  0  0  0  0
 35 37  1  0  0  0  0
 37 38  1  0  0  0  0
 37 83  1  0  0  0  0
 38 39  1  0  0  0  0
 38 42  1  0  0  0  0
 38 84  1  0  0  0  0
 39 40  1  0  0  0  0
 39 41  1  0  0  0  0
 39 85  1  0  0  0  0
 40 86  1  0  0  0  0
 40 87  1  0  0  0  0
 40 88  1  0  0  0  0
 41 89  1  0  0  0  0
 41 90  1  0  0  0  0
 41 91  1  0  0  0  0
 42 43  2  0  0  0  0
 42 44  1  0  0  0  0
 44 45  1  0  0  0  0
 44 92  1  0  0  0  0
 45 46  1  0  0  0  0
 45 93  1  0  0  0  0
 45 94  1  0  0  0  0
 46 47  1  0  0  0  0
 46 51  2  0  0  0  0
 47 48  2  0  0  0  0
 47 95  1  0  0  0  0
 48 49  1  0  0  0  0
 48 96  1  0  0  0  0
 49 50  2  0  0  0  0
 49 97  1  0  0  0  0
 50 51  1  0  0  0  0
 50 98  1  0  0  0  0
 51 99  1  0  0  0  0
100101  1  0  0  0  0
100102  1  0  0  0  0
100109  2  0  0  0  0
102103  1  0  0  0  0
102104  2  0  0  0  0
104105  1  0  0  0  0
104106  1  0  0  0  0
106107  2  0  0  0  0
107108  1  0  0  0  0
107109  1  0  0  0  0
109110  1  0  0  0  0
M  END
>  <PARENT_CMPD_ID>
CHEMBL1076905

>  <STANDARD_TYPE>
IC50

>  <RELATION>
=

>  <STANDARD_VALUE>
3.0999999

>  <STANDARD_UNITS>
nM

>  <COMPOUND_KEY>
34-(R)

>  <PUBMED_ID>
20036448

>  <JOURNAL>
Eur. J. Med. Chem.

>  <YEAR>
2010

>  <VOLUME>
45

>  <FIRST_PAGE>
870

>  <Company>
Medivir

>  <idx>
312

>  <Model>
Valid

>  <target>
8.5086384

>  <des_pred_mlr>
8.7822399

>  <RF_Canvas>
7.5928879

>  <DNN_Canvas>
7.3304925

>  <pred_CoMFA>
8.0432997

>  <pred_COMSIA>
8.6377001

>  <pred_abm5>
7.8097548

>  <pred_ff8>
6.5360761

>  <pred_gau6>
8.1829615

>  <CID>
BACE_312

>  <active>
1

>  <des_class_bayes>
1

>  <maacs_class_bayes>
1

>  <radial_class_bayes>
0

>  <dend_class_bayes>
1

>  <molprint_class_bayes>
1

>  <RF_canvas>
1

>  <DNN_canvas>
1

$$$$
22468684_43
  MOE2015           3D

 84 88  0  0  1  0  0  0  0  0999 V2000
   20.7570   13.9040   29.6210 C   0  0  0  0  0  0  0  0  0  0  0  0
   20.1220   13.0240   30.6930 C   0  0  0  0  0  0  0  0  0  0  0  0
   19.1160   12.5500   29.6470 C   0  0  0  0  0  0  0  0  0  0  0  0
   20.0920   13.0180   28.5420 C   0  0  0  0  0  0  0  0  0  0  0  0
   21.0270   11.9760   27.9510 C   0  0  0  0  0  0  0  0  0  0  0  0
   19.5000   13.7820   27.4790 O   0  0  0  0  0  0  0  0  0  0  0  0
   18.8660   13.0740   26.4950 C   0  0  0  0  0  0  0  0  0  0  0  0
   17.9710   13.7890   25.7960 N   0  0  0  0  0  0  0  0  0  0  0  0
   17.3290   13.1520   24.8030 C   0  0  0  0  0  0  0  0  0  0  0  0
   17.5150   11.8150   24.4860 C   0  0  0  0  0  0  0  0  0  0  0  0
   16.7190   11.1690   23.3930 C   0  0  0  0  0  0  0  0  0  0  0  0
   15.3870   10.5170   23.8210 C   0  0  0  0  0  0  0  0  0  0  0  0
   14.4850   11.4950   24.5740 C   0  0  0  0  0  0  0  0  0  0  0  0
   15.6290    9.2850   24.6930 C   0  0  0  0  0  0  0  0  0  0  0  0
   14.6520   10.0720   22.5530 C   0  0  0  0  0  0  0  0  0  0  0  0
   18.4520   11.1090   25.2300 C   0  0  0  0  0  0  0  0  0  0  0  0
   19.1740   11.7460   26.2400 C   0  0  0  0  0  0  0  0  0  0  0  0
   20.2300   11.0390   27.0360 C   0  0  3  0  0  0  0  0  0  0  0  0
   21.2070   10.2420   26.2030 N   0  3  0  0  0  0  0  0  0  0  0  0
   21.9280   11.0010   25.1190 C   0  0  0  0  0  0  0  0  0  0  0  0
   22.3580   10.0180   24.0340 C   0  0  3  0  0  0  0  0  0  0  0  0
   21.2130    9.2440   23.6570 O   0  0  0  0  0  0  0  0  0  0  0  0
   22.9670   10.7300   22.8060 C   0  0  3  0  0  0  0  0  0  0  0  0
   23.9840   11.6930   23.2040 N   0  0  0  0  0  0  0  0  0  0  0  0
   23.7430   13.0520   23.2650 C   0  0  0  0  0  0  0  0  0  0  0  0
   22.6510   13.5560   23.0380 O   0  0  0  0  0  0  0  0  0  0  0  0
   24.9450   13.8450   23.7600 C   0  0  3  0  0  0  0  0  0  0  0  0
   24.9750   13.8910   25.2720 C   0  0  0  0  0  0  0  0  0  0  0  0
   26.1360   13.2440   23.2710 O   0  0  0  0  0  0  0  0  0  0  0  0
   26.1750   13.4160   22.3120 H   0  0  0  0  0  0  0  0  0  0  0  0
   23.5050    9.6880   21.8040 C   0  0  0  0  0  0  0  0  0  0  0  0
   24.3380   10.2870   20.7080 C   0  0  0  0  0  0  0  0  0  0  0  0
   25.7240   10.3360   20.8640 C   0  0  0  0  0  0  0  0  0  0  0  0
   23.7630   10.8470   19.5760 C   0  0  0  0  0  0  0  0  0  0  0  0
   24.5660   11.4470   18.6170 C   0  0  0  0  0  0  0  0  0  0  0  0
   25.9450   11.5040   18.7920 C   0  0  0  0  0  0  0  0  0  0  0  0
   26.5450   10.9480   19.9200 C   0  0  0  0  0  0  0  0  0  0  0  0
   27.9930   11.0680   20.1200 C   0  0  0  0  0  0  0  0  0  0  0  0
   28.7230   12.0620   19.6600 N   0  0  0  0  0  0  0  0  0  0  0  0
   30.0350   11.9020   20.0430 C   0  0  0  0  0  0  0  0  0  0  0  0
   30.3060   10.7790   20.7870 C   0  0  0  0  0  0  0  0  0  0  0  0
   28.8760    9.8830   21.0070 S   0  0  0  0  0  0  0  0  0  0  0  0
   21.8510   13.9280   29.6290 H   0  0  0  0  0  0  0  0  0  0  0  0
   20.3920   14.9390   29.6320 H   0  0  0  0  0  0  0  0  0  0  0  0
   19.6990   13.5520   31.5520 H   0  0  0  0  0  0  0  0  0  0  0  0
   20.7830   12.2300   31.0590 H   0  0  0  0  0  0  0  0  0  0  0  0
   18.1700   13.1040   29.6670 H   0  0  0  0  0  0  0  0  0  0  0  0
   18.8880   11.4810   29.6810 H   0  0  0  0  0  0  0  0  0  0  0  0
   21.5330   11.3920   28.7290 H   0  0  0  0  0  0  0  0  0  0  0  0
   21.8150   12.4970   27.3930 H   0  0  0  0  0  0  0  0  0  0  0  0
   16.6180   13.7680   24.2590 H   0  0  0  0  0  0  0  0  0  0  0  0
   17.3530   10.4250   22.8900 H   0  0  0  0  0  0  0  0  0  0  0  0
   16.5230   11.9290   22.6230 H   0  0  0  0  0  0  0  0  0  0  0  0
   14.9000   11.7730   25.5490 H   0  0  0  0  0  0  0  0  0  0  0  0
   13.4990   11.0540   24.7670 H   0  0  0  0  0  0  0  0  0  0  0  0
   14.3230   12.4130   23.9990 H   0  0  0  0  0  0  0  0  0  0  0  0
   16.0660    9.5490   25.6620 H   0  0  0  0  0  0  0  0  0  0  0  0
   16.3020    8.5740   24.2020 H   0  0  0  0  0  0  0  0  0  0  0  0
   14.6900    8.7580   24.9020 H   0  0  0  0  0  0  0  0  0  0  0  0
   14.4300   10.9240   21.8990 H   0  0  0  0  0  0  0  0  0  0  0  0
   13.7000    9.5840   22.7900 H   0  0  0  0  0  0  0  0  0  0  0  0
   15.2520    9.3590   21.9750 H   0  0  0  0  0  0  0  0  0  0  0  0
   18.6120   10.0570   25.0090 H   0  0  0  0  0  0  0  0  0  0  0  0
   19.7230   10.2930   27.6610 H   0  0  0  0  0  0  0  0  0  0  0  0
   20.7010    9.4860   25.7080 H   0  0  0  0  0  0  0  0  0  0  0  0
   21.8820    9.7560   26.8080 H   0  0  0  0  0  0  0  0  0  0  0  0
   22.7770   11.5020   25.5920 H   0  0  0  0  0  0  0  0  0  0  0  0
   21.2390   11.7400   24.7050 H   0  0  0  0  0  0  0  0  0  0  0  0
   23.0890    9.3230   24.4650 H   0  0  0  0  0  0  0  0  0  0  0  0
   20.7860    9.6520   22.8790 H   0  0  0  0  0  0  0  0  0  0  0  0
   22.1690   11.2820   22.2920 H   0  0  0  0  0  0  0  0  0  0  0  0
   24.9330   11.3930   23.4310 H   0  0  0  0  0  0  0  0  0  0  0  0
   24.8840   14.8600   23.3530 H   0  0  0  0  0  0  0  0  0  0  0  0
   25.0900   12.8870   25.6960 H   0  0  0  0  0  0  0  0  0  0  0  0
   24.0570   14.3280   25.6770 H   0  0  0  0  0  0  0  0  0  0  0  0
   25.8300   14.4790   25.6210 H   0  0  0  0  0  0  0  0  0  0  0  0
   22.6730    9.1260   21.3610 H   0  0  0  0  0  0  0  0  0  0  0  0
   24.1090    8.9390   22.3350 H   0  0  0  0  0  0  0  0  0  0  0  0
   26.1570    9.9100   21.7670 H   0  0  0  0  0  0  0  0  0  0  0  0
   22.6850   10.8310   19.4350 H   0  0  0  0  0  0  0  0  0  0  0  0
   24.1150   11.8890   17.7320 H   0  0  0  0  0  0  0  0  0  0  0  0
   26.5540   11.9990   18.0360 H   0  0  0  0  0  0  0  0  0  0  0  0
   30.7650   12.6450   19.7500 H   0  0  0  0  0  0  0  0  0  0  0  0
   31.2540   10.4540   21.1900 H   0  0  0  0  0  0  0  0  0  0  0  0
  1  2  1  0  0  0  0
  1  4  1  0  0  0  0
  1 43  1  0  0  0  0
  1 44  1  0  0  0  0
  2  3  1  0  0  0  0
  2 45  1  0  0  0  0
  2 46  1  0  0  0  0
  3  4  1  0  0  0  0
  3 47  1  0  0  0  0
  3 48  1  0  0  0  0
  4  5  1  0  0  0  0
  4  6  1  0  0  0  0
  5 18  1  0  0  0  0
  5 49  1  0  0  0  0
  5 50  1  0  0  0  0
  6  7  1  0  0  0  0
  7  8  1  0  0  0  0
  7 17  2  0  0  0  0
  8  9  2  0  0  0  0
  9 10  1  0  0  0  0
  9 51  1  0  0  0  0
 10 11  1  0  0  0  0
 10 16  2  0  0  0  0
 11 12  1  0  0  0  0
 11 52  1  0  0  0  0
 11 53  1  0  0  0  0
 12 13  1  0  0  0  0
 12 14  1  0  0  0  0
 12 15  1  0  0  0  0
 13 54  1  0  0  0  0
 13 55  1  0  0  0  0
 13 56  1  0  0  0  0
 14 57  1  0  0  0  0
 14 58  1  0  0  0  0
 14 59  1  0  0  0  0
 15 60  1  0  0  0  0
 15 61  1  0  0  0  0
 15 62  1  0  0  0  0
 16 17  1  0  0  0  0
 16 63  1  0  0  0  0
 17 18  1  0  0  0  0
 18 19  1  0  0  0  0
 18 64  1  0  0  0  0
 19 20  1  0  0  0  0
 19 65  1  0  0  0  0
 19 66  1  0  0  0  0
 20 21  1  0  0  0  0
 20 67  1  0  0  0  0
 20 68  1  0  0  0  0
 21 22  1  0  0  0  0
 21 23  1  0  0  0  0
 21 69  1  0  0  0  0
 22 70  1  0  0  0  0
 23 24  1  0  0  0  0
 23 31  1  0  0  0  0
 23 71  1  0  0  0  0
 24 25  1  0  0  0  0
 24 72  1  0  0  0  0
 25 26  2  0  0  0  0
 25 27  1  0  0  0  0
 27 28  1  0  0  0  0
 27 29  1  0  0  0  0
 27 73  1  0  0  0  0
 28 74  1  0  0  0  0
 28 75  1  0  0  0  0
 28 76  1  0  0  0  0
 29 30  1  0  0  0  0
 31 32  1  0  0  0  0
 31 77  1  0  0  0  0
 31 78  1  0  0  0  0
 32 33  1  0  0  0  0
 32 34  2  0  0  0  0
 33 37  2  0  0  0  0
 33 79  1  0  0  0  0
 34 35  1  0  0  0  0
 34 80  1  0  0  0  0
 35 36  2  0  0  0  0
 35 81  1  0  0  0  0
 36 37  1  0  0  0  0
 36 82  1  0  0  0  0
 37 38  1  0  0  0  0
 38 39  2  0  0  0  0
 38 42  1  0  0  0  0
 39 40  1  0  0  0  0
 40 41  2  0  0  0  0
 40 83  1  0  0  0  0
 41 42  1  0  0  0  0
 41 84  1  0  0  0  0
M  CHG  1  19   1
M  END
>  <PARENT_CMPD_ID>
22468684_43

>  <STANDARD_TYPE>
IC50

>  <RELATION>
=

>  <STANDARD_VALUE>
3.2

>  <STANDARD_UNITS>
nM

>  <COMPOUND_KEY>
43

>  <PUBMED_ID>
22468684

>  <JOURNAL>
J.Med.Chem.

>  <YEAR>
2012

>  <VOLUME>
55

>  <FIRST_PAGE>
9025

>  <Company>
Amgen

>  <idx>
313

>  <Model>
Valid

>  <target>
8.4948502

>  <des_pred_mlr>
7.8022499

>  <RF_Canvas>
7.9957461

>  <DNN_Canvas>
8.0777798

>  <pred_CoMFA>
8.6963997

>  <pred_COMSIA>
8.4434996

>  <pred_abm5>
8.8248711

>  <pred_ff8>
8.1368122

>  <pred_gau6>
8.5849447

>  <CID>
BACE_313

>  <active>
1

>  <des_class_bayes>
1

>  <maacs_class_bayes>
1

>  <radial_class_bayes>
1

>  <dend_class_bayes>
1

>  <molprint_class_bayes>
1

>  <RF_canvas>
1

>  <DNN_canvas>
1

$$$$
22698785_29
  MOE2015           3D

 91 94  0  0  1  0  0  0  0  0999 V2000
   28.1840   16.7600   28.1640 O   0  0  0  0  0  0  0  0  0  0  0  0
   28.4930   16.0780   26.9260 S   0  0  0  0  0  0  0  0  0  0  0  0
   29.2790   14.8670   26.9810 O   0  0  0  0  0  0  0  0  0  0  0  0
   29.3140   17.2570   25.8750 C   0  0  0  0  0  0  0  0  0  0  0  0
   30.2750   17.4960   26.3360 H   0  0  0  0  0  0  0  0  0  0  0  0
   28.7110   18.1630   25.8060 H   0  0  0  0  0  0  0  0  0  0  0  0
   29.4820   16.8280   24.8880 H   0  0  0  0  0  0  0  0  0  0  0  0
   27.0370   15.8210   26.0990 N   0  0  0  0  0  0  0  0  0  0  0  0
   26.0710   16.9350   26.0690 C   0  0  0  0  0  0  0  0  0  0  0  0
   26.4400   17.8180   26.6000 H   0  0  0  0  0  0  0  0  0  0  0  0
   25.1380   16.6380   26.5580 H   0  0  0  0  0  0  0  0  0  0  0  0
   25.8620   17.2460   25.0400 H   0  0  0  0  0  0  0  0  0  0  0  0
   26.8920   14.7930   25.1080 C   0  0  0  0  0  0  0  0  0  0  0  0
   27.9580   14.3280   24.3360 C   0  0  0  0  0  0  0  0  0  0  0  0
   28.9740   14.6750   24.4880 H   0  0  0  0  0  0  0  0  0  0  0  0
   27.7360   13.4070   23.3230 C   0  0  0  0  0  0  0  0  0  0  0  0
   25.6100   14.2880   24.8750 C   0  0  0  0  0  0  0  0  0  0  0  0
   24.7660   14.6150   25.4770 H   0  0  0  0  0  0  0  0  0  0  0  0
   25.4070   13.3390   23.8890 C   0  0  0  0  0  0  0  0  0  0  0  0
   26.4630   12.9160   23.1010 C   0  0  0  0  0  0  0  0  0  0  0  0
   26.2970   12.1870   22.3110 H   0  0  0  0  0  0  0  0  0  0  0  0
   24.0760   12.7410   23.6560 C   0  0  0  0  0  0  0  0  0  0  0  0
   23.0540   13.4060   23.7040 O   0  0  0  0  0  0  0  0  0  0  0  0
   24.1390   11.3990   23.3790 N   0  0  0  0  0  0  0  0  0  0  0  0
   25.0280   10.9190   23.4920 H   0  0  0  0  0  0  0  0  0  0  0  0
   23.0380   10.5850   22.8930 C   0  0  3  0  0  0  0  0  0  0  0  0
   22.3050   11.2450   22.4120 H   0  0  0  0  0  0  0  0  0  0  0  0
   22.3950    9.8250   24.0680 C   0  0  3  0  0  0  0  0  0  0  0  0
   23.1380    9.1680   24.5370 H   0  0  0  0  0  0  0  0  0  0  0  0
   21.8560   10.7950   25.1270 C   0  0  0  0  0  0  0  0  0  0  0  0
   21.1040   11.4510   24.6810 H   0  0  0  0  0  0  0  0  0  0  0  0
   22.6350   11.3870   25.6130 H   0  0  0  0  0  0  0  0  0  0  0  0
   21.1920   10.0020   26.2120 N   0  3  0  0  0  0  0  0  0  0  0  0
   21.8990    9.5440   26.8020 H   0  0  0  0  0  0  0  0  0  0  0  0
   20.6980    9.2320   25.7310 H   0  0  0  0  0  0  0  0  0  0  0  0
   20.2310   10.7630   27.0630 C   0  0  0  0  0  0  0  0  0  0  0  0
   20.8110   11.5510   27.5570 H   0  0  0  0  0  0  0  0  0  0  0  0
   19.8850   10.0680   27.8360 H   0  0  0  0  0  0  0  0  0  0  0  0
   19.0550   11.3160   26.3150 C   0  0  0  0  0  0  0  0  0  0  0  0
   18.1830   10.4640   25.6350 C   0  0  0  0  0  0  0  0  0  0  0  0
   18.3370    9.3860   25.6760 H   0  0  0  0  0  0  0  0  0  0  0  0
   17.1060   10.9560   24.8940 C   0  0  0  0  0  0  0  0  0  0  0  0
   16.2190    9.9700   24.1710 C   0  0  0  0  0  0  0  0  0  0  0  0
   16.8750    9.2120   23.7200 H   0  0  0  0  0  0  0  0  0  0  0  0
   15.2960    9.2670   25.1560 C   0  0  0  0  0  0  0  0  0  0  0  0
   14.6270    9.9780   25.6560 H   0  0  0  0  0  0  0  0  0  0  0  0
   15.8590    8.7410   25.9360 H   0  0  0  0  0  0  0  0  0  0  0  0
   14.6730    8.5230   24.6460 H   0  0  0  0  0  0  0  0  0  0  0  0
   15.4070   10.5610   23.0260 C   0  0  0  0  0  0  0  0  0  0  0  0
   14.6410   11.2590   23.3810 H   0  0  0  0  0  0  0  0  0  0  0  0
   14.8900    9.7680   22.4740 H   0  0  0  0  0  0  0  0  0  0  0  0
   16.0490   11.0910   22.3140 H   0  0  0  0  0  0  0  0  0  0  0  0
   16.8970   12.3320   24.8730 C   0  0  0  0  0  0  0  0  0  0  0  0
   16.0630   12.7670   24.3280 H   0  0  0  0  0  0  0  0  0  0  0  0
   17.7490   13.1900   25.5540 C   0  0  0  0  0  0  0  0  0  0  0  0
   17.5700   14.2630   25.5240 H   0  0  0  0  0  0  0  0  0  0  0  0
   18.8230   12.6870   26.2710 C   0  0  0  0  0  0  0  0  0  0  0  0
   19.4760   13.3840   26.7910 H   0  0  0  0  0  0  0  0  0  0  0  0
   21.3120    8.9920   23.6480 O   0  0  0  0  0  0  0  0  0  0  0  0
   20.7640    9.4790   23.0020 H   0  0  0  0  0  0  0  0  0  0  0  0
   23.6110    9.6270   21.8230 C   0  0  0  0  0  0  0  0  0  0  0  0
   22.8110    9.1150   21.2790 H   0  0  0  0  0  0  0  0  0  0  0  0
   24.2390    8.8750   22.3180 H   0  0  0  0  0  0  0  0  0  0  0  0
   24.4000   10.3850   20.8930 O   0  0  0  0  0  0  0  0  0  0  0  0
   25.3560    9.6060   20.1740 C   0  0  0  0  0  0  0  0  0  0  0  0
   24.9180    9.3530   19.2020 H   0  0  0  0  0  0  0  0  0  0  0  0
   25.5870    8.6690   20.6950 H   0  0  0  0  0  0  0  0  0  0  0  0
   26.6040   10.4220   19.9630 C   0  0  0  0  0  0  0  0  0  0  0  0
   26.4570   11.4000   19.5190 H   0  0  0  0  0  0  0  0  0  0  0  0
   27.8320    9.9790   20.2760 C   0  0  0  0  0  0  0  0  0  0  0  0
   27.9120    8.9730   20.6910 H   0  0  0  0  0  0  0  0  0  0  0  0
   29.1780   10.6630   20.1610 C   0  0  0  0  0  0  0  0  0  0  0  0
   29.7010   10.2190   19.3040 H   0  0  0  0  0  0  0  0  0  0  0  0
   29.7480   10.3660   21.0520 H   0  0  0  0  0  0  0  0  0  0  0  0
   29.2070   12.1930   20.0520 C   0  0  1  0  0  0  0  0  0  0  0  0
   28.5850   12.4190   19.1730 H   0  0  0  0  0  0  0  0  0  0  0  0
   28.5040   12.8250   21.1540 N   0  0  0  0  0  0  0  0  0  0  0  0
   27.6430   13.2790   20.8760 H   0  0  0  0  0  0  0  0  0  0  0  0
   28.8400   12.8900   22.4830 C   0  0  0  0  0  0  0  0  0  0  0  0
   29.8500   12.5040   23.0510 O   0  0  0  0  0  0  0  0  0  0  0  0
   30.5310   12.8600   19.7570 C   0  0  0  0  0  0  0  0  0  0  0  0
   31.7570   12.3060   20.1120 C   0  0  0  0  0  0  0  0  0  0  0  0
   31.8120   11.3710   20.6630 H   0  0  0  0  0  0  0  0  0  0  0  0
   32.9470   12.9370   19.7630 C   0  0  0  0  0  0  0  0  0  0  0  0
   33.8980   12.4880   20.0400 H   0  0  0  0  0  0  0  0  0  0  0  0
   32.9280   14.1360   19.0700 C   0  0  0  0  0  0  0  0  0  0  0  0
   33.8600   14.6250   18.8030 H   0  0  0  0  0  0  0  0  0  0  0  0
   31.7180   14.7170   18.7350 C   0  0  0  0  0  0  0  0  0  0  0  0
   31.6970   15.6630   18.2000 H   0  0  0  0  0  0  0  0  0  0  0  0
   30.5310   14.0870   19.0790 C   0  0  0  0  0  0  0  0  0  0  0  0
   29.5910   14.5560   18.7960 H   0  0  0  0  0  0  0  0  0  0  0  0
  1  2  2  0  0  0  0
  2  3  2  0  0  0  0
  2  4  1  0  0  0  0
  2  8  1  0  0  0  0
  4  5  1  0  0  0  0
  4  6  1  0  0  0  0
  4  7  1  0  0  0  0
  8  9  1  0  0  0  0
  8 13  1  0  0  0  0
  9 10  1  0  0  0  0
  9 11  1  0  0  0  0
  9 12  1  0  0  0  0
 13 14  2  0  0  0  0
 13 17  1  0  0  0  0
 14 15  1  0  0  0  0
 14 16  1  0  0  0  0
 16 20  2  0  0  0  0
 16 79  1  0  0  0  0
 17 18  1  0  0  0  0
 17 19  2  0  0  0  0
 19 20  1  0  0  0  0
 19 22  1  0  0  0  0
 20 21  1  0  0  0  0
 22 23  2  0  0  0  0
 22 24  1  0  0  0  0
 24 25  1  0  0  0  0
 24 26  1  0  0  0  0
 26 27  1  0  0  0  0
 26 28  1  0  0  0  0
 26 61  1  0  0  0  0
 28 29  1  0  0  0  0
 28 30  1  0  0  0  0
 28 59  1  0  0  0  0
 30 31  1  0  0  0  0
 30 32  1  0  0  0  0
 30 33  1  0  0  0  0
 33 34  1  0  0  0  0
 33 35  1  0  0  0  0
 33 36  1  0  0  0  0
 36 37  1  0  0  0  0
 36 38  1  0  0  0  0
 36 39  1  0  0  0  0
 39 40  2  0  0  0  0
 39 57  1  0  0  0  0
 40 41  1  0  0  0  0
 40 42  1  0  0  0  0
 42 43  1  0  0  0  0
 42 53  2  0  0  0  0
 43 44  1  0  0  0  0
 43 45  1  0  0  0  0
 43 49  1  0  0  0  0
 45 46  1  0  0  0  0
 45 47  1  0  0  0  0
 45 48  1  0  0  0  0
 49 50  1  0  0  0  0
 49 51  1  0  0  0  0
 49 52  1  0  0  0  0
 53 54  1  0  0  0  0
 53 55  1  0  0  0  0
 55 56  1  0  0  0  0
 55 57  2  0  0  0  0
 57 58  1  0  0  0  0
 59 60  1  0  0  0  0
 61 62  1  0  0  0  0
 61 63  1  0  0  0  0
 61 64  1  0  0  0  0
 64 65  1  0  0  0  0
 65 66  1  0  0  0  0
 65 67  1  0  0  0  0
 65 68  1  0  0  0  0
 68 69  1  0  0  0  0
 68 70  2  0  0  0  0
 70 71  1  0  0  0  0
 70 72  1  0  0  0  0
 72 73  1  0  0  0  0
 72 74  1  0  0  0  0
 72 75  1  0  0  0  0
 75 76  1  0  0  0  0
 75 77  1  0  0  0  0
 75 81  1  0  0  0  0
 77 78  1  0  0  0  0
 77 79  1  0  0  0  0
 79 80  2  0  0  0  0
 81 82  1  0  0  0  0
 81 90  2  0  0  0  0
 82 83  1  0  0  0  0
 82 84  2  0  0  0  0
 84 85  1  0  0  0  0
 84 86  1  0  0  0  0
 86 87  1  0  0  0  0
 86 88  2  0  0  0  0
 88 89  1  0  0  0  0
 88 90  1  0  0  0  0
 90 91  1  0  0  0  0
M  CHG  1  33   1
M  END
>  <PARENT_CMPD_ID>
22698785_29

>  <STANDARD_TYPE>
IC50

>  <RELATION>
=

>  <STANDARD_VALUE>
3.2

>  <STANDARD_UNITS>
nM

>  <COMPOUND_KEY>
29

>  <PUBMED_ID>
22698785

>  <JOURNAL>
Bioorg. Med. Chem.

>  <YEAR>
2012

>  <VOLUME>
20

>  <FIRST_PAGE>
4377

>  <Company>
Medivir

>  <idx>
314

>  <Model>
Valid

>  <target>
8.4948502

>  <des_pred_mlr>
7.4520702

>  <RF_Canvas>
6.8500342

>  <DNN_Canvas>
6.5463567

>  <pred_CoMFA>
6.5163002

>  <pred_COMSIA>
7.1403999

>  <pred_abm5>
6.5887532

>  <pred_ff8>
7.8698721

>  <pred_gau6>
6.5977969

>  <CID>
BACE_314

>  <active>
1

>  <des_class_bayes>
1

>  <maacs_class_bayes>
1

>  <radial_class_bayes>
1

>  <dend_class_bayes>
1

>  <molprint_class_bayes>
0

>  <RF_canvas>
0

>  <DNN_canvas>
1

$$$$
22468684_19
  MOE2015           3D

 80 83  0  0  1  0  0  0  0  0999 V2000
   20.7530   13.9020   29.6240 C   0  0  0  0  0  0  0  0  0  0  0  0
   20.1160   13.0230   30.6960 C   0  0  0  0  0  0  0  0  0  0  0  0
   19.1100   12.5500   29.6510 C   0  0  0  0  0  0  0  0  0  0  0  0
   20.0880   13.0150   28.5460 C   0  0  0  0  0  0  0  0  0  0  0  0
   21.0210   11.9710   27.9570 C   0  0  0  0  0  0  0  0  0  0  0  0
   19.4980   13.7790   27.4820 O   0  0  0  0  0  0  0  0  0  0  0  0
   18.8620   13.0720   26.4980 C   0  0  0  0  0  0  0  0  0  0  0  0
   17.9670   13.7870   25.7990 N   0  0  0  0  0  0  0  0  0  0  0  0
   17.3260   13.1500   24.8060 C   0  0  0  0  0  0  0  0  0  0  0  0
   17.5120   11.8130   24.4880 C   0  0  0  0  0  0  0  0  0  0  0  0
   16.7170   11.1680   23.3940 C   0  0  0  0  0  0  0  0  0  0  0  0
   15.3860   10.5160   23.8210 C   0  0  0  0  0  0  0  0  0  0  0  0
   14.4830   11.4920   24.5750 C   0  0  0  0  0  0  0  0  0  0  0  0
   15.6270    9.2830   24.6930 C   0  0  0  0  0  0  0  0  0  0  0  0
   14.6520   10.0710   22.5520 C   0  0  0  0  0  0  0  0  0  0  0  0
   18.4490   11.1070   25.2320 C   0  0  0  0  0  0  0  0  0  0  0  0
   19.1700   11.7430   26.2430 C   0  0  0  0  0  0  0  0  0  0  0  0
   20.2250   11.0350   27.0400 C   0  0  3  0  0  0  0  0  0  0  0  0
   21.2030   10.2400   26.2060 N   0  3  0  0  0  0  0  0  0  0  0  0
   21.9240   11.0030   25.1240 C   0  0  0  0  0  0  0  0  0  0  0  0
   22.3690   10.0250   24.0400 C   0  0  3  0  0  0  0  0  0  0  0  0
   21.2280    9.2520   23.6510 O   0  0  0  0  0  0  0  0  0  0  0  0
   22.9980   10.7390   22.8210 C   0  0  3  0  0  0  0  0  0  0  0  0
   24.0170   11.6910   23.2400 N   0  0  0  0  0  0  0  0  0  0  0  0
   23.7690   13.0450   23.3270 C   0  0  0  0  0  0  0  0  0  0  0  0
   22.6740   13.5440   23.0950 O   0  0  0  0  0  0  0  0  0  0  0  0
   24.9470   13.8560   23.8380 C   0  0  0  0  0  0  0  0  0  0  0  0
   26.1870   13.3090   23.4210 O   0  0  0  0  0  0  0  0  0  0  0  0
   26.5980   13.8200   22.1610 C   0  0  0  0  0  0  0  0  0  0  0  0
   23.5340    9.7020   21.8130 C   0  0  0  0  0  0  0  0  0  0  0  0
   24.4300   10.2810   20.7570 C   0  0  0  0  0  0  0  0  0  0  0  0
   25.8130   10.2310   20.9430 C   0  0  0  0  0  0  0  0  0  0  0  0
   23.9240   10.8990   19.6190 C   0  0  0  0  0  0  0  0  0  0  0  0
   24.7940   11.4520   18.6840 C   0  0  0  0  0  0  0  0  0  0  0  0
   26.1710   11.4020   18.8850 C   0  0  0  0  0  0  0  0  0  0  0  0
   26.6840   10.7910   20.0200 C   0  0  0  0  0  0  0  0  0  0  0  0
   21.8470   13.9230   29.6330 H   0  0  0  0  0  0  0  0  0  0  0  0
   20.3900   14.9370   29.6340 H   0  0  0  0  0  0  0  0  0  0  0  0
   19.6940   13.5530   31.5540 H   0  0  0  0  0  0  0  0  0  0  0  0
   20.7760   12.2280   31.0630 H   0  0  0  0  0  0  0  0  0  0  0  0
   18.1650   13.1060   29.6690 H   0  0  0  0  0  0  0  0  0  0  0  0
   18.8800   11.4810   29.6850 H   0  0  0  0  0  0  0  0  0  0  0  0
   21.5240   11.3860   28.7360 H   0  0  0  0  0  0  0  0  0  0  0  0
   21.8110   12.4910   27.4010 H   0  0  0  0  0  0  0  0  0  0  0  0
   16.6140   13.7660   24.2620 H   0  0  0  0  0  0  0  0  0  0  0  0
   17.3520   10.4240   22.8910 H   0  0  0  0  0  0  0  0  0  0  0  0
   16.5210   11.9280   22.6240 H   0  0  0  0  0  0  0  0  0  0  0  0
   14.8970   11.7700   25.5500 H   0  0  0  0  0  0  0  0  0  0  0  0
   13.4970   11.0510   24.7660 H   0  0  0  0  0  0  0  0  0  0  0  0
   14.3210   12.4110   24.0000 H   0  0  0  0  0  0  0  0  0  0  0  0
   16.0640    9.5460   25.6610 H   0  0  0  0  0  0  0  0  0  0  0  0
   16.3010    8.5720   24.2010 H   0  0  0  0  0  0  0  0  0  0  0  0
   14.6890    8.7550   24.9000 H   0  0  0  0  0  0  0  0  0  0  0  0
   14.4300   10.9230   21.8990 H   0  0  0  0  0  0  0  0  0  0  0  0
   13.6990    9.5820   22.7890 H   0  0  0  0  0  0  0  0  0  0  0  0
   15.2510    9.3580   21.9740 H   0  0  0  0  0  0  0  0  0  0  0  0
   18.6110   10.0550   25.0100 H   0  0  0  0  0  0  0  0  0  0  0  0
   19.7170   10.2870   27.6630 H   0  0  0  0  0  0  0  0  0  0  0  0
   20.7020    9.4830   25.7090 H   0  0  0  0  0  0  0  0  0  0  0  0
   21.8830    9.7570   26.8080 H   0  0  0  0  0  0  0  0  0  0  0  0
   22.7660   11.5110   25.6010 H   0  0  0  0  0  0  0  0  0  0  0  0
   21.2310   11.7370   24.7050 H   0  0  0  0  0  0  0  0  0  0  0  0
   23.0940    9.3280   24.4780 H   0  0  0  0  0  0  0  0  0  0  0  0
   20.7800    9.6870   22.9000 H   0  0  0  0  0  0  0  0  0  0  0  0
   22.2080   11.3000   22.3030 H   0  0  0  0  0  0  0  0  0  0  0  0
   24.9670   11.3870   23.4530 H   0  0  0  0  0  0  0  0  0  0  0  0
   24.8430   14.9030   23.5330 H   0  0  0  0  0  0  0  0  0  0  0  0
   24.9170   13.8140   24.9320 H   0  0  0  0  0  0  0  0  0  0  0  0
   27.5400   13.3410   21.8860 H   0  0  0  0  0  0  0  0  0  0  0  0
   26.7670   14.8990   22.2240 H   0  0  0  0  0  0  0  0  0  0  0  0
   25.8510   13.6040   21.3910 H   0  0  0  0  0  0  0  0  0  0  0  0
   22.6970    9.1800   21.3310 H   0  0  0  0  0  0  0  0  0  0  0  0
   24.0890    8.9200   22.3500 H   0  0  0  0  0  0  0  0  0  0  0  0
   26.2220    9.7500   21.8300 H   0  0  0  0  0  0  0  0  0  0  0  0
   22.8520   10.9600   19.4520 H   0  0  0  0  0  0  0  0  0  0  0  0
   24.3950   11.9340   17.7950 H   0  0  0  0  0  0  0  0  0  0  0  0
   26.8370   11.8440   18.1480 H   0  0  0  0  0  0  0  0  0  0  0  0
   28.0910   10.7270   20.2770 C   0  0  0  0  0  0  0  0  0  0  0  0
   29.2610   10.6590   20.5440 C   0  0  0  0  0  0  0  0  0  0  0  0
   30.2980   10.6010   20.7790 H   0  0  0  0  0  0  0  0  0  0  0  0
  1  2  1  0  0  0  0
  1  4  1  0  0  0  0
  1 37  1  0  0  0  0
  1 38  1  0  0  0  0
  2  3  1  0  0  0  0
  2 39  1  0  0  0  0
  2 40  1  0  0  0  0
  3  4  1  0  0  0  0
  3 41  1  0  0  0  0
  3 42  1  0  0  0  0
  4  5  1  0  0  0  0
  4  6  1  0  0  0  0
  5 18  1  0  0  0  0
  5 43  1  0  0  0  0
  5 44  1  0  0  0  0
  6  7  1  0  0  0  0
  7  8  1  0  0  0  0
  7 17  2  0  0  0  0
  8  9  2  0  0  0  0
  9 10  1  0  0  0  0
  9 45  1  0  0  0  0
 10 11  1  0  0  0  0
 10 16  2  0  0  0  0
 11 12  1  0  0  0  0
 11 46  1  0  0  0  0
 11 47  1  0  0  0  0
 12 13  1  0  0  0  0
 12 14  1  0  0  0  0
 12 15  1  0  0  0  0
 13 48  1  0  0  0  0
 13 49  1  0  0  0  0
 13 50  1  0  0  0  0
 14 51  1  0  0  0  0
 14 52  1  0  0  0  0
 14 53  1  0  0  0  0
 15 54  1  0  0  0  0
 15 55  1  0  0  0  0
 15 56  1  0  0  0  0
 16 17  1  0  0  0  0
 16 57  1  0  0  0  0
 17 18  1  0  0  0  0
 18 19  1  0  0  0  0
 18 58  1  0  0  0  0
 19 20  1  0  0  0  0
 19 59  1  0  0  0  0
 19 60  1  0  0  0  0
 20 21  1  0  0  0  0
 20 61  1  0  0  0  0
 20 62  1  0  0  0  0
 21 22  1  0  0  0  0
 21 23  1  0  0  0  0
 21 63  1  0  0  0  0
 22 64  1  0  0  0  0
 23 24  1  0  0  0  0
 23 30  1  0  0  0  0
 23 65  1  0  0  0  0
 24 25  1  0  0  0  0
 24 66  1  0  0  0  0
 25 26  2  0  0  0  0
 25 27  1  0  0  0  0
 27 28  1  0  0  0  0
 27 67  1  0  0  0  0
 27 68  1  0  0  0  0
 28 29  1  0  0  0  0
 29 69  1  0  0  0  0
 29 70  1  0  0  0  0
 29 71  1  0  0  0  0
 30 31  1  0  0  0  0
 30 72  1  0  0  0  0
 30 73  1  0  0  0  0
 31 32  1  0  0  0  0
 31 33  2  0  0  0  0
 32 36  2  0  0  0  0
 32 74  1  0  0  0  0
 33 34  1  0  0  0  0
 33 75  1  0  0  0  0
 34 35  2  0  0  0  0
 34 76  1  0  0  0  0
 35 36  1  0  0  0  0
 35 77  1  0  0  0  0
 36 78  1  0  0  0  0
 78 79  3  0  0  0  0
 79 80  1  0  0  0  0
M  CHG  1  19   1
M  END
>  <PARENT_CMPD_ID>
22468684_19

>  <STANDARD_TYPE>
IC50

>  <RELATION>
=

>  <STANDARD_VALUE>
3.4000001

>  <STANDARD_UNITS>
nM

>  <COMPOUND_KEY>
19

>  <PUBMED_ID>
22468684

>  <JOURNAL>
J.Med.Chem.

>  <YEAR>
2012

>  <VOLUME>
55

>  <FIRST_PAGE>
9025

>  <Company>
Amgen

>  <idx>
315

>  <Model>
Valid

>  <target>
8.4685211

>  <des_pred_mlr>
7.3512301

>  <RF_Canvas>
7.9009342

>  <DNN_Canvas>
7.0789766

>  <pred_CoMFA>
8.3449001

>  <pred_COMSIA>
8.1691999

>  <pred_abm5>
8.5500116

>  <pred_ff8>
7.9786682

>  <pred_gau6>
8.7108984

>  <CID>
BACE_315

>  <active>
1

>  <des_class_bayes>
1

>  <maacs_class_bayes>
1

>  <radial_class_bayes>
1

>  <dend_class_bayes>
1

>  <molprint_class_bayes>
1

>  <RF_canvas>
1

>  <DNN_canvas>
1

$$$$
mcl886_18
  MOE2015           3D

 74 77  0  0  1  0  0  0  0  0999 V2000
   18.6740   12.1650   29.4520 C   0  0  0  0  0  0  0  0  0  0  0  0
   19.6310   12.6490   30.5370 C   0  0  0  0  0  0  0  0  0  0  0  0
   20.2760   13.5660   29.5030 C   0  0  0  0  0  0  0  0  0  0  0  0
   19.6660   12.6890   28.3850 C   0  0  0  0  0  0  0  0  0  0  0  0
   20.6460   11.6950   27.7840 C   0  0  0  0  0  0  0  0  0  0  0  0
   19.0740   13.4610   27.3280 O   0  0  0  0  0  0  0  0  0  0  0  0
   18.4440   12.7480   26.3450 C   0  0  0  0  0  0  0  0  0  0  0  0
   17.4930   13.4340   25.6930 N   0  0  0  0  0  0  0  0  0  0  0  0
   16.8460   12.7840   24.7130 C   0  0  0  0  0  0  0  0  0  0  0  0
   17.0820   11.4630   24.3650 C   0  0  0  0  0  0  0  0  0  0  0  0
   16.2850   10.8020   23.2810 C   0  0  0  0  0  0  0  0  0  0  0  0
   14.9690   10.1300   23.7180 C   0  0  0  0  0  0  0  0  0  0  0  0
   14.0400   11.1040   24.4430 C   0  0  0  0  0  0  0  0  0  0  0  0
   15.2340    8.9250   24.6200 C   0  0  0  0  0  0  0  0  0  0  0  0
   14.2540    9.6390   22.4550 C   0  0  0  0  0  0  0  0  0  0  0  0
   18.0770   10.7870   25.0620 C   0  0  0  0  0  0  0  0  0  0  0  0
   18.8030   11.4390   26.0580 C   0  0  0  0  0  0  0  0  0  0  0  0
   19.9050   10.7630   26.8200 C   0  0  3  0  0  0  0  0  0  0  0  0
   20.9190   10.0540   25.9520 N   0  3  0  0  0  0  0  0  0  0  0  0
   21.6260   10.8850   24.9110 C   0  0  0  0  0  0  0  0  0  0  0  0
   22.1330    9.9490   23.8070 C   0  0  3  0  0  0  0  0  0  0  0  0
   21.0290    9.1360   23.3950 O   0  0  0  0  0  0  0  0  0  0  0  0
   22.7400   10.7460   22.6290 C   0  0  3  0  0  0  0  0  0  0  0  0
   23.8920   11.5160   23.0820 N   0  0  0  0  0  0  0  0  0  0  0  0
   23.8040   12.8670   23.3200 C   0  0  0  0  0  0  0  0  0  0  0  0
   25.0970   13.4990   23.7400 C   0  0  0  0  0  0  0  0  0  0  0  0
   22.7520   13.4910   23.2360 O   0  0  0  0  0  0  0  0  0  0  0  0
   23.1230    9.8610   21.4240 C   0  0  0  0  0  0  0  0  0  0  0  0
   23.7810   10.6330   20.3080 C   0  0  0  0  0  0  0  0  0  0  0  0
   25.1060   10.3930   19.9620 C   0  0  0  0  0  0  0  0  0  0  0  0
   25.7560   11.1060   18.9660 C   0  0  0  0  0  0  0  0  0  0  0  0
   25.0770   12.0970   18.2840 C   0  0  0  0  0  0  0  0  0  0  0  0
   25.5710   12.6680   17.5020 H   0  0  0  0  0  0  0  0  0  0  0  0
   23.7530   12.3540   18.6110 C   0  0  0  0  0  0  0  0  0  0  0  0
   23.1070   11.6270   19.6090 C   0  0  0  0  0  0  0  0  0  0  0  0
   17.7090   12.6860   29.4560 H   0  0  0  0  0  0  0  0  0  0  0  0
   18.4830   11.0880   29.4550 H   0  0  0  0  0  0  0  0  0  0  0  0
   20.3030   11.8670   30.9100 H   0  0  0  0  0  0  0  0  0  0  0  0
   19.1670   13.1490   31.3900 H   0  0  0  0  0  0  0  0  0  0  0  0
   21.3690   13.6150   29.5440 H   0  0  0  0  0  0  0  0  0  0  0  0
   19.8870   14.5920   29.5240 H   0  0  0  0  0  0  0  0  0  0  0  0
   21.1530   11.1030   28.5560 H   0  0  0  0  0  0  0  0  0  0  0  0
   21.4310   12.2590   27.2640 H   0  0  0  0  0  0  0  0  0  0  0  0
   16.0900   13.3760   24.2040 H   0  0  0  0  0  0  0  0  0  0  0  0
   16.9270   10.0670   22.7750 H   0  0  0  0  0  0  0  0  0  0  0  0
   16.0730   11.5580   22.5110 H   0  0  0  0  0  0  0  0  0  0  0  0
   14.4410   11.4110   25.4150 H   0  0  0  0  0  0  0  0  0  0  0  0
   13.0630   10.6460   24.6370 H   0  0  0  0  0  0  0  0  0  0  0  0
   13.8630   12.0060   23.8460 H   0  0  0  0  0  0  0  0  0  0  0  0
   15.6670    9.2210   25.5810 H   0  0  0  0  0  0  0  0  0  0  0  0
   15.9230    8.2160   24.1470 H   0  0  0  0  0  0  0  0  0  0  0  0
   14.3070    8.3830   24.8410 H   0  0  0  0  0  0  0  0  0  0  0  0
   14.0170   10.4700   21.7800 H   0  0  0  0  0  0  0  0  0  0  0  0
   13.3100    9.1350   22.6980 H   0  0  0  0  0  0  0  0  0  0  0  0
   14.8720    8.9260   21.8980 H   0  0  0  0  0  0  0  0  0  0  0  0
   18.2770    9.7460   24.8170 H   0  0  0  0  0  0  0  0  0  0  0  0
   19.4400    9.9630   27.4110 H   0  0  0  0  0  0  0  0  0  0  0  0
   20.4530    9.3010   25.4160 H   0  0  0  0  0  0  0  0  0  0  0  0
   21.6110    9.5690   26.5380 H   0  0  0  0  0  0  0  0  0  0  0  0
   22.4370   11.4150   25.4160 H   0  0  0  0  0  0  0  0  0  0  0  0
   20.9030   11.5960   24.5030 H   0  0  0  0  0  0  0  0  0  0  0  0
   22.8870    9.2720   24.2260 H   0  0  0  0  0  0  0  0  0  0  0  0
   20.5430    9.5870   22.6790 H   0  0  0  0  0  0  0  0  0  0  0  0
   21.9690   11.4430   22.2750 H   0  0  0  0  0  0  0  0  0  0  0  0
   24.7860   11.0460   23.2020 H   0  0  0  0  0  0  0  0  0  0  0  0
   25.9430   13.0280   23.2310 H   0  0  0  0  0  0  0  0  0  0  0  0
   25.2180   13.3880   24.8210 H   0  0  0  0  0  0  0  0  0  0  0  0
   25.0850   14.5610   23.4810 H   0  0  0  0  0  0  0  0  0  0  0  0
   22.2320    9.3650   21.0190 H   0  0  0  0  0  0  0  0  0  0  0  0
   23.7860    9.0570   21.7660 H   0  0  0  0  0  0  0  0  0  0  0  0
   25.7940    9.4610   20.6230 F   0  0  0  0  0  0  0  0  0  0  0  0
   26.7920   10.8840   18.7340 H   0  0  0  0  0  0  0  0  0  0  0  0
   23.2110   13.1340   18.0790 H   0  0  0  0  0  0  0  0  0  0  0  0
   22.0680   11.8580   19.8350 H   0  0  0  0  0  0  0  0  0  0  0  0
  1  2  1  0  0  0  0
  1  4  1  0  0  0  0
  1 36  1  0  0  0  0
  1 37  1  0  0  0  0
  2  3  1  0  0  0  0
  2 38  1  0  0  0  0
  2 39  1  0  0  0  0
  3  4  1  0  0  0  0
  3 40  1  0  0  0  0
  3 41  1  0  0  0  0
  4  5  1  0  0  0  0
  4  6  1  0  0  0  0
  5 18  1  0  0  0  0
  5 42  1  0  0  0  0
  5 43  1  0  0  0  0
  6  7  1  0  0  0  0
  7  8  1  0  0  0  0
  7 17  2  0  0  0  0
  8  9  2  0  0  0  0
  9 10  1  0  0  0  0
  9 44  1  0  0  0  0
 10 11  1  0  0  0  0
 10 16  2  0  0  0  0
 11 12  1  0  0  0  0
 11 45  1  0  0  0  0
 11 46  1  0  0  0  0
 12 13  1  0  0  0  0
 12 14  1  0  0  0  0
 12 15  1  0  0  0  0
 13 47  1  0  0  0  0
 13 48  1  0  0  0  0
 13 49  1  0  0  0  0
 14 50  1  0  0  0  0
 14 51  1  0  0  0  0
 14 52  1  0  0  0  0
 15 53  1  0  0  0  0
 15 54  1  0  0  0  0
 15 55  1  0  0  0  0
 16 17  1  0  0  0  0
 16 56  1  0  0  0  0
 17 18  1  0  0  0  0
 18 19  1  0  0  0  0
 18 57  1  0  0  0  0
 19 20  1  0  0  0  0
 19 58  1  0  0  0  0
 19 59  1  0  0  0  0
 20 21  1  0  0  0  0
 20 60  1  0  0  0  0
 20 61  1  0  0  0  0
 21 22  1  0  0  0  0
 21 23  1  0  0  0  0
 21 62  1  0  0  0  0
 22 63  1  0  0  0  0
 23 24  1  0  0  0  0
 23 28  1  0  0  0  0
 23 64  1  0  0  0  0
 24 25  1  0  0  0  0
 24 65  1  0  0  0  0
 25 26  1  0  0  0  0
 25 27  2  0  0  0  0
 26 66  1  0  0  0  0
 26 67  1  0  0  0  0
 26 68  1  0  0  0  0
 28 29  1  0  0  0  0
 28 69  1  0  0  0  0
 28 70  1  0  0  0  0
 29 30  1  0  0  0  0
 29 35  2  0  0  0  0
 30 31  2  0  0  0  0
 30 71  1  0  0  0  0
 31 32  1  0  0  0  0
 31 72  1  0  0  0  0
 32 33  1  0  0  0  0
 32 34  2  0  0  0  0
 34 35  1  0  0  0  0
 34 73  1  0  0  0  0
 35 74  1  0  0  0  0
M  CHG  1  19   1
M  END
>  <PARENT_CMPD_ID>
mcl886_18

>  <STANDARD_TYPE>
IC50

>  <RELATION>
=

>  <STANDARD_VALUE>
3.5999999

>  <STANDARD_UNITS>
nM

>  <COMPOUND_KEY>
18

>  <PUBMED_ID>
24900403

>  <JOURNAL>
ACS Med. Chem. Lett.

>  <YEAR>
2012

>  <VOLUME>
3

>  <FIRST_PAGE>
886

>  <Company>
Amgen

>  <idx>
316

>  <Model>
Valid

>  <target>
8.4436979

>  <des_pred_mlr>
7.07302

>  <RF_Canvas>
7.9578724

>  <DNN_Canvas>
7.7567773

>  <pred_CoMFA>
7.7452998

>  <pred_COMSIA>
7.4136

>  <pred_abm5>
7.8696074

>  <pred_ff8>
7.4930081

>  <pred_gau6>
7.7117233

>  <CID>
BACE_316

>  <active>
1

>  <des_class_bayes>
0

>  <maacs_class_bayes>
1

>  <radial_class_bayes>
1

>  <dend_class_bayes>
1

>  <molprint_class_bayes>
1

>  <RF_canvas>
1

>  <DNN_canvas>
1

$$$$
mcl886_31
  MOE2015           3D

 78 81  0  0  1  0  0  0  0  0999 V2000
   18.6640   12.1790   29.4680 C   0  0  0  0  0  0  0  0  0  0  0  0
   19.6240   12.6610   30.5510 C   0  0  0  0  0  0  0  0  0  0  0  0
   20.2700   13.5760   29.5150 C   0  0  0  0  0  0  0  0  0  0  0  0
   19.6580   12.6970   28.4000 C   0  0  0  0  0  0  0  0  0  0  0  0
   20.6360   11.6980   27.8060 C   0  0  0  0  0  0  0  0  0  0  0  0
   19.0700   13.4650   27.3390 O   0  0  0  0  0  0  0  0  0  0  0  0
   18.4440   12.7510   26.3540 C   0  0  0  0  0  0  0  0  0  0  0  0
   17.4980   13.4370   25.6950 N   0  0  0  0  0  0  0  0  0  0  0  0
   16.8540   12.7850   24.7130 C   0  0  0  0  0  0  0  0  0  0  0  0
   17.0870   11.4620   24.3720 C   0  0  0  0  0  0  0  0  0  0  0  0
   16.2940   10.8000   23.2860 C   0  0  0  0  0  0  0  0  0  0  0  0
   14.9740   10.1310   23.7190 C   0  0  0  0  0  0  0  0  0  0  0  0
   14.0460   11.1070   24.4410 C   0  0  0  0  0  0  0  0  0  0  0  0
   15.2330    8.9250   24.6220 C   0  0  0  0  0  0  0  0  0  0  0  0
   14.2610    9.6420   22.4540 C   0  0  0  0  0  0  0  0  0  0  0  0
   18.0760   10.7860   25.0780 C   0  0  0  0  0  0  0  0  0  0  0  0
   18.7990   11.4400   26.0750 C   0  0  0  0  0  0  0  0  0  0  0  0
   19.8920   10.7620   26.8480 C   0  0  3  0  0  0  0  0  0  0  0  0
   20.9070   10.0420   25.9910 N   0  3  0  0  0  0  0  0  0  0  0  0
   21.6250   10.8640   24.9540 C   0  0  0  0  0  0  0  0  0  0  0  0
   22.1260    9.9230   23.8580 C   0  0  3  0  0  0  0  0  0  0  0  0
   21.0210    9.1170   23.4340 O   0  0  0  0  0  0  0  0  0  0  0  0
   22.7380   10.7060   22.6820 C   0  0  3  0  0  0  0  0  0  0  0  0
   23.8840   11.4930   23.1220 N   0  0  0  0  0  0  0  0  0  0  0  0
   23.7910   12.8480   23.3390 C   0  0  0  0  0  0  0  0  0  0  0  0
   25.0830   13.4890   23.7480 C   0  0  0  0  0  0  0  0  0  0  0  0
   22.7400   13.4710   23.2420 O   0  0  0  0  0  0  0  0  0  0  0  0
   23.1360    9.7950   21.5030 C   0  0  0  0  0  0  0  0  0  0  0  0
   23.7310   10.5760   20.3620 C   0  0  0  0  0  0  0  0  0  0  0  0
   25.0480   10.3790   19.9710 C   0  0  0  0  0  0  0  0  0  0  0  0
   25.6020   11.1600   18.9630 C   0  0  0  0  0  0  0  0  0  0  0  0
   26.8760   10.9240   18.6490 F   0  0  0  0  0  0  0  0  0  0  0  0
   24.8750   12.1460   18.3150 C   0  0  0  0  0  0  0  0  0  0  0  0
   25.2960   12.9840   17.3240 O   0  0  0  0  0  0  0  0  0  0  0  0
   26.6360   12.8330   16.8840 C   0  0  0  0  0  0  0  0  0  0  0  0
   26.8110   13.5680   16.0920 H   0  0  0  0  0  0  0  0  0  0  0  0
   26.8040   11.8410   16.4530 H   0  0  0  0  0  0  0  0  0  0  0  0
   27.3450   13.0480   17.6910 H   0  0  0  0  0  0  0  0  0  0  0  0
   23.5560   12.3260   18.6980 C   0  0  0  0  0  0  0  0  0  0  0  0
   22.9860   11.5480   19.7010 C   0  0  0  0  0  0  0  0  0  0  0  0
   17.7020   12.7050   29.4710 H   0  0  0  0  0  0  0  0  0  0  0  0
   18.4670   11.1030   29.4740 H   0  0  0  0  0  0  0  0  0  0  0  0
   20.2940   11.8780   30.9240 H   0  0  0  0  0  0  0  0  0  0  0  0
   19.1620   13.1630   31.4050 H   0  0  0  0  0  0  0  0  0  0  0  0
   21.3620   13.6230   29.5560 H   0  0  0  0  0  0  0  0  0  0  0  0
   19.8820   14.6010   29.5350 H   0  0  0  0  0  0  0  0  0  0  0  0
   21.1400   11.1080   28.5820 H   0  0  0  0  0  0  0  0  0  0  0  0
   21.4220   12.2560   27.2840 H   0  0  0  0  0  0  0  0  0  0  0  0
   16.1020   13.3780   24.1980 H   0  0  0  0  0  0  0  0  0  0  0  0
   16.9360   10.0620   22.7840 H   0  0  0  0  0  0  0  0  0  0  0  0
   16.0860   11.5540   22.5130 H   0  0  0  0  0  0  0  0  0  0  0  0
   14.4440   11.4130   25.4140 H   0  0  0  0  0  0  0  0  0  0  0  0
   13.0670   10.6520   24.6320 H   0  0  0  0  0  0  0  0  0  0  0  0
   13.8730   12.0100   23.8440 H   0  0  0  0  0  0  0  0  0  0  0  0
   15.6640    9.2200   25.5840 H   0  0  0  0  0  0  0  0  0  0  0  0
   15.9210    8.2140   24.1500 H   0  0  0  0  0  0  0  0  0  0  0  0
   14.3040    8.3870   24.8410 H   0  0  0  0  0  0  0  0  0  0  0  0
   14.0290   10.4730   21.7790 H   0  0  0  0  0  0  0  0  0  0  0  0
   13.3160    9.1400   22.6940 H   0  0  0  0  0  0  0  0  0  0  0  0
   14.8800    8.9270   21.8990 H   0  0  0  0  0  0  0  0  0  0  0  0
   18.2700    9.7420   24.8410 H   0  0  0  0  0  0  0  0  0  0  0  0
   19.4200    9.9690   27.4430 H   0  0  0  0  0  0  0  0  0  0  0  0
   20.4380    9.2870   25.4610 H   0  0  0  0  0  0  0  0  0  0  0  0
   21.5890    9.5570   26.5890 H   0  0  0  0  0  0  0  0  0  0  0  0
   22.4380   11.3880   25.4610 H   0  0  0  0  0  0  0  0  0  0  0  0
   20.9110   11.5820   24.5410 H   0  0  0  0  0  0  0  0  0  0  0  0
   22.8740    9.2410   24.2820 H   0  0  0  0  0  0  0  0  0  0  0  0
   20.5120    9.5940   22.7520 H   0  0  0  0  0  0  0  0  0  0  0  0
   21.9640   11.3920   22.3140 H   0  0  0  0  0  0  0  0  0  0  0  0
   24.7810   11.0340   23.2540 H   0  0  0  0  0  0  0  0  0  0  0  0
   25.9260   13.0330   23.2210 H   0  0  0  0  0  0  0  0  0  0  0  0
   25.2210   13.3670   24.8260 H   0  0  0  0  0  0  0  0  0  0  0  0
   25.0560   14.5540   23.5030 H   0  0  0  0  0  0  0  0  0  0  0  0
   22.2650    9.2440   21.1270 H   0  0  0  0  0  0  0  0  0  0  0  0
   23.8530    9.0390   21.8510 H   0  0  0  0  0  0  0  0  0  0  0  0
   25.6730    9.6290   20.4480 H   0  0  0  0  0  0  0  0  0  0  0  0
   22.9540   13.0890   18.2080 H   0  0  0  0  0  0  0  0  0  0  0  0
   21.9470   11.7290   19.9670 H   0  0  0  0  0  0  0  0  0  0  0  0
  1  2  1  0  0  0  0
  1  4  1  0  0  0  0
  1 41  1  0  0  0  0
  1 42  1  0  0  0  0
  2  3  1  0  0  0  0
  2 43  1  0  0  0  0
  2 44  1  0  0  0  0
  3  4  1  0  0  0  0
  3 45  1  0  0  0  0
  3 46  1  0  0  0  0
  4  5  1  0  0  0  0
  4  6  1  0  0  0  0
  5 18  1  0  0  0  0
  5 47  1  0  0  0  0
  5 48  1  0  0  0  0
  6  7  1  0  0  0  0
  7  8  1  0  0  0  0
  7 17  2  0  0  0  0
  8  9  2  0  0  0  0
  9 10  1  0  0  0  0
  9 49  1  0  0  0  0
 10 11  1  0  0  0  0
 10 16  2  0  0  0  0
 11 12  1  0  0  0  0
 11 50  1  0  0  0  0
 11 51  1  0  0  0  0
 12 13  1  0  0  0  0
 12 14  1  0  0  0  0
 12 15  1  0  0  0  0
 13 52  1  0  0  0  0
 13 53  1  0  0  0  0
 13 54  1  0  0  0  0
 14 55  1  0  0  0  0
 14 56  1  0  0  0  0
 14 57  1  0  0  0  0
 15 58  1  0  0  0  0
 15 59  1  0  0  0  0
 15 60  1  0  0  0  0
 16 17  1  0  0  0  0
 16 61  1  0  0  0  0
 17 18  1  0  0  0  0
 18 19  1  0  0  0  0
 18 62  1  0  0  0  0
 19 20  1  0  0  0  0
 19 63  1  0  0  0  0
 19 64  1  0  0  0  0
 20 21  1  0  0  0  0
 20 65  1  0  0  0  0
 20 66  1  0  0  0  0
 21 22  1  0  0  0  0
 21 23  1  0  0  0  0
 21 67  1  0  0  0  0
 22 68  1  0  0  0  0
 23 24  1  0  0  0  0
 23 28  1  0  0  0  0
 23 69  1  0  0  0  0
 24 25  1  0  0  0  0
 24 70  1  0  0  0  0
 25 26  1  0  0  0  0
 25 27  2  0  0  0  0
 26 71  1  0  0  0  0
 26 72  1  0  0  0  0
 26 73  1  0  0  0  0
 28 29  1  0  0  0  0
 28 74  1  0  0  0  0
 28 75  1  0  0  0  0
 29 30  1  0  0  0  0
 29 40  2  0  0  0  0
 30 31  2  0  0  0  0
 30 76  1  0  0  0  0
 31 32  1  0  0  0  0
 31 33  1  0  0  0  0
 33 34  1  0  0  0  0
 33 39  2  0  0  0  0
 34 35  1  0  0  0  0
 35 36  1  0  0  0  0
 35 37  1  0  0  0  0
 35 38  1  0  0  0  0
 39 40  1  0  0  0  0
 39 77  1  0  0  0  0
 40 78  1  0  0  0  0
M  CHG  1  19   1
M  END
>  <PARENT_CMPD_ID>
mcl886_31

>  <STANDARD_TYPE>
IC50

>  <RELATION>
=

>  <STANDARD_VALUE>
3.5999999

>  <STANDARD_UNITS>
nM

>  <COMPOUND_KEY>
31

>  <PUBMED_ID>
24900403

>  <JOURNAL>
ACS Med. Chem. Lett.

>  <YEAR>
2012

>  <VOLUME>
3

>  <FIRST_PAGE>
886

>  <Company>
Amgen

>  <idx>
317

>  <Model>
Valid

>  <target>
8.4436979

>  <des_pred_mlr>
7.0091801

>  <RF_Canvas>
7.9184046

>  <DNN_Canvas>
7.9933085

>  <pred_CoMFA>
7.7874999

>  <pred_COMSIA>
7.5107999

>  <pred_abm5>
8.1923447

>  <pred_ff8>
7.3785281

>  <pred_gau6>
7.9548979

>  <CID>
BACE_317

>  <active>
1

>  <des_class_bayes>
0

>  <maacs_class_bayes>
1

>  <radial_class_bayes>
0

>  <dend_class_bayes>
1

>  <molprint_class_bayes>
1

>  <RF_canvas>
1

>  <DNN_canvas>
1

$$$$
CHEMBL1076901
  MOE2015           3D

113116  0  0  1  0  0  0  0  0999 V2000
   30.1440   13.4960   22.1610 O   0  0  0  0  0  0  0  0  0  0  0  0
   29.1330   12.8860   22.3900 C   0  0  0  0  0  0  0  0  0  0  0  0
   28.8940   11.6370   22.0460 N   0  0  0  0  0  0  0  0  0  0  0  0
   29.8730   10.8790   21.2910 C   0  0  3  0  0  0  0  0  0  0  0  0
   30.6580   10.0790   22.2730 C   0  0  0  0  0  0  0  0  0  0  0  0
   30.0260    9.1230   23.0860 C   0  0  0  0  0  0  0  0  0  0  0  0
   30.8080    8.3750   23.9630 C   0  0  0  0  0  0  0  0  0  0  0  0
   32.1940    8.5790   24.0520 C   0  0  0  0  0  0  0  0  0  0  0  0
   32.8310    9.5330   23.2690 C   0  0  0  0  0  0  0  0  0  0  0  0
   32.0360   10.2890   22.3900 C   0  0  0  0  0  0  0  0  0  0  0  0
   29.2090   10.0380   20.1920 C   0  0  0  0  0  0  0  0  0  0  0  0
   28.0590   13.4960   23.1700 C   0  0  0  0  0  0  0  0  0  0  0  0
   28.3540   14.4690   24.1070 C   0  0  0  0  0  0  0  0  0  0  0  0
   27.2770   14.9310   24.8510 C   0  0  0  0  0  0  0  0  0  0  0  0
   27.4540   15.9100   25.8540 N   0  0  0  0  0  0  0  0  0  0  0  0
   28.8010   16.1540   26.5840 S   0  0  0  0  0  0  0  0  0  0  0  0
   28.3600   16.8020   27.8440 O   0  0  0  0  0  0  0  0  0  0  0  0
   29.6490   17.3480   25.7380 C   0  0  0  0  0  0  0  0  0  0  0  0
   29.6030   14.9590   26.6260 O   0  0  0  0  0  0  0  0  0  0  0  0
   26.2480   16.7010   26.2220 C   0  0  0  0  0  0  0  0  0  0  0  0
   25.9990   14.4240   24.6290 C   0  0  0  0  0  0  0  0  0  0  0  0
   26.7900   12.9620   22.9450 C   0  0  0  0  0  0  0  0  0  0  0  0
   25.7190   13.4300   23.6920 C   0  0  0  0  0  0  0  0  0  0  0  0
   24.3220   12.8810   23.4610 C   0  0  0  0  0  0  0  0  0  0  0  0
   23.3930   13.6600   23.4950 O   0  0  0  0  0  0  0  0  0  0  0  0
   24.1200   11.5710   23.2830 N   0  0  0  0  0  0  0  0  0  0  0  0
   22.8270   10.9460   23.0420 C   0  0  3  0  0  0  0  0  0  0  0  0
   22.9910    9.7810   22.0830 C   0  0  0  0  0  0  0  0  0  0  0  0
   24.2980    9.9460   21.5720 O   0  0  0  0  0  0  0  0  0  0  0  0
   24.2100   10.2290   20.1940 C   0  0  0  0  0  0  0  0  0  0  0  0
   24.5700   11.6310   19.7770 C   0  0  0  0  0  0  0  0  0  0  0  0
   25.8330   11.9640   19.2970 C   0  0  0  0  0  0  0  0  0  0  0  0
   26.0490   13.2720   18.8620 C   0  0  0  0  0  0  0  0  0  0  0  0
   27.0240   13.5530   18.4910 H   0  0  0  0  0  0  0  0  0  0  0  0
   25.0420   14.2130   18.8970 C   0  0  0  0  0  0  0  0  0  0  0  0
   23.7870   13.8870   19.3720 C   0  0  0  0  0  0  0  0  0  0  0  0
   23.0010   14.6270   19.4040 H   0  0  0  0  0  0  0  0  0  0  0  0
   23.5550   12.5830   19.8100 C   0  0  0  0  0  0  0  0  0  0  0  0
   22.2290   10.3110   24.2800 C   0  0  3  0  0  0  0  0  0  0  0  0
   23.1760    9.3680   24.8210 O   0  0  0  0  0  0  0  0  0  0  0  0
   21.7280   11.4260   25.2080 C   0  0  0  0  0  0  0  0  0  0  0  0
   20.5110   10.9420   25.9880 C   0  0  3  0  0  0  0  0  0  0  0  0
   20.6890   11.5370   27.3850 C   0  0  0  0  0  0  0  0  0  0  0  0
   19.2080   11.3630   25.3330 C   0  0  0  0  0  0  0  0  0  0  0  0
   19.1030   12.5270   24.9740 O   0  0  0  0  0  0  0  0  0  0  0  0
   18.1880   10.5150   25.0930 N   0  0  0  0  0  0  0  0  0  0  0  0
   16.9740   11.0650   24.5000 C   0  0  3  0  0  0  0  0  0  0  0  0
   15.8390   10.0730   24.4700 C   0  0  0  0  0  0  0  0  0  0  0  0
   15.3840    9.7490   23.0600 C   0  0  0  0  0  0  0  0  0  0  0  0
   16.0720    8.8650   25.3540 C   0  0  0  0  0  0  0  0  0  0  0  0
   16.5710   12.1970   25.4040 C   0  0  0  0  0  0  0  0  0  0  0  0
   16.5120   11.9470   26.5970 O   0  0  0  0  0  0  0  0  0  0  0  0
   16.2440   13.4010   24.9320 N   0  0  0  0  0  0  0  0  0  0  0  0
   15.8590   14.4670   25.8600 C   0  0  0  0  0  0  0  0  0  0  0  0
   15.9190   15.7680   25.1060 C   0  0  0  0  0  0  0  0  0  0  0  0
   14.8200   16.1790   24.3330 C   0  0  0  0  0  0  0  0  0  0  0  0
   14.8580   17.3710   23.5960 C   0  0  0  0  0  0  0  0  0  0  0  0
   16.0220   18.1470   23.6410 C   0  0  0  0  0  0  0  0  0  0  0  0
   17.1130   17.7270   24.4210 C   0  0  0  0  0  0  0  0  0  0  0  0
   17.0730   16.5380   25.1620 C   0  0  0  0  0  0  0  0  0  0  0  0
   28.0210   11.2030   22.3100 H   0  0  0  0  0  0  0  0  0  0  0  0
   30.5520   11.5360   20.7490 H   0  0  0  0  0  0  0  0  0  0  0  0
   28.9580    8.9720   23.0320 H   0  0  0  0  0  0  0  0  0  0  0  0
   30.3400    7.6260   24.5850 H   0  0  0  0  0  0  0  0  0  0  0  0
   32.7750    7.9840   24.7410 H   0  0  0  0  0  0  0  0  0  0  0  0
   33.8980    9.6880   23.3330 H   0  0  0  0  0  0  0  0  0  0  0  0
   32.5030   11.0540   21.7880 H   0  0  0  0  0  0  0  0  0  0  0  0
   28.5030    9.3410   20.6440 H   0  0  0  0  0  0  0  0  0  0  0  0
   29.9730    9.4810   19.6500 H   0  0  0  0  0  0  0  0  0  0  0  0
   28.6800   10.6950   19.5020 H   0  0  0  0  0  0  0  0  0  0  0  0
   29.3560   14.8450   24.2510 H   0  0  0  0  0  0  0  0  0  0  0  0
   29.0520   18.2590   25.6990 H   0  0  0  0  0  0  0  0  0  0  0  0
   29.8500   17.0020   24.7240 H   0  0  0  0  0  0  0  0  0  0  0  0
   30.5920   17.5530   26.2460 H   0  0  0  0  0  0  0  0  0  0  0  0
   25.4060   16.3890   25.6040 H   0  0  0  0  0  0  0  0  0  0  0  0
   26.4450   17.7610   26.0590 H   0  0  0  0  0  0  0  0  0  0  0  0
   26.0100   16.5330   27.2720 H   0  0  0  0  0  0  0  0  0  0  0  0
   25.1820   14.8210   25.2130 H   0  0  0  0  0  0  0  0  0  0  0  0
   26.6430   12.1950   22.1990 H   0  0  0  0  0  0  0  0  0  0  0  0
   24.9290   10.9670   23.3190 H   0  0  0  0  0  0  0  0  0  0  0  0
   22.1900   11.7490   22.6700 H   0  0  0  0  0  0  0  0  0  0  0  0
   22.2520    9.8300   21.2830 H   0  0  0  0  0  0  0  0  0  0  0  0
   22.8960    8.8300   22.6070 H   0  0  0  0  0  0  0  0  0  0  0  0
   23.1820   10.0430   19.8820 H   0  0  0  0  0  0  0  0  0  0  0  0
   24.8780    9.5450   19.6710 H   0  0  0  0  0  0  0  0  0  0  0  0
   26.6240   11.2300   19.2620 H   0  0  0  0  0  0  0  0  0  0  0  0
   25.2370   15.2170   18.5490 H   0  0  0  0  0  0  0  0  0  0  0  0
   22.5770   12.3090   20.1790 H   0  0  0  0  0  0  0  0  0  0  0  0
   21.3420    9.7100   24.0810 H   0  0  0  0  0  0  0  0  0  0  0  0
   23.9840    9.8480   25.0160 H   0  0  0  0  0  0  0  0  0  0  0  0
   21.4530   12.2960   24.6120 H   0  0  0  0  0  0  0  0  0  0  0  0
   22.5200   11.6990   25.9060 H   0  0  0  0  0  0  0  0  0  0  0  0
   20.4490    9.8540   26.0210 H   0  0  0  0  0  0  0  0  0  0  0  0
   20.7470   12.6230   27.3130 H   0  0  0  0  0  0  0  0  0  0  0  0
   21.6070   11.1530   27.8290 H   0  0  0  0  0  0  0  0  0  0  0  0
   19.8400   11.2590   28.0090 H   0  0  0  0  0  0  0  0  0  0  0  0
   18.2620    9.5330   25.3160 H   0  0  0  0  0  0  0  0  0  0  0  0
   17.1710   11.3590   23.4690 H   0  0  0  0  0  0  0  0  0  0  0  0
   14.9850   10.5700   24.9290 H   0  0  0  0  0  0  0  0  0  0  0  0
   16.1890    9.2440   22.5250 H   0  0  0  0  0  0  0  0  0  0  0  0
   15.1250   10.6720   22.5410 H   0  0  0  0  0  0  0  0  0  0  0  0
   14.5110    9.0980   23.1010 H   0  0  0  0  0  0  0  0  0  0  0  0
   16.9180    8.2940   24.9730 H   0  0  0  0  0  0  0  0  0  0  0  0
   15.1810    8.2380   25.3540 H   0  0  0  0  0  0  0  0  0  0  0  0
   16.2850    9.1950   26.3710 H   0  0  0  0  0  0  0  0  0  0  0  0
   16.2620   13.5770   23.9380 H   0  0  0  0  0  0  0  0  0  0  0  0
   16.5490   14.4940   26.7030 H   0  0  0  0  0  0  0  0  0  0  0  0
   14.8460   14.2950   26.2250 H   0  0  0  0  0  0  0  0  0  0  0  0
   13.9310   15.5660   24.3060 H   0  0  0  0  0  0  0  0  0  0  0  0
   14.0080   17.6830   23.0070 H   0  0  0  0  0  0  0  0  0  0  0  0
   16.0820   19.0660   23.0780 H   0  0  0  0  0  0  0  0  0  0  0  0
   18.0050   18.3360   24.4500 H   0  0  0  0  0  0  0  0  0  0  0  0
   17.9170   16.2290   25.7610 H   0  0  0  0  0  0  0  0  0  0  0  0
  1  2  2  0  0  0  0
  2  3  1  0  0  0  0
  2 12  1  0  0  0  0
  3  4  1  0  0  0  0
  3 61  1  0  0  0  0
  4  5  1  0  0  0  0
  4 11  1  0  0  0  0
  4 62  1  0  0  0  0
  5  6  1  0  0  0  0
  5 10  2  0  0  0  0
  6  7  2  0  0  0  0
  6 63  1  0  0  0  0
  7  8  1  0  0  0  0
  7 64  1  0  0  0  0
  8  9  2  0  0  0  0
  8 65  1  0  0  0  0
  9 10  1  0  0  0  0
  9 66  1  0  0  0  0
 10 67  1  0  0  0  0
 11 68  1  0  0  0  0
 11 69  1  0  0  0  0
 11 70  1  0  0  0  0
 12 13  1  0  0  0  0
 12 22  2  0  0  0  0
 13 14  2  0  0  0  0
 13 71  1  0  0  0  0
 14 15  1  0  0  0  0
 14 21  1  0  0  0  0
 15 16  1  0  0  0  0
 15 20  1  0  0  0  0
 16 17  2  0  0  0  0
 16 18  1  0  0  0  0
 16 19  2  0  0  0  0
 18 72  1  0  0  0  0
 18 73  1  0  0  0  0
 18 74  1  0  0  0  0
 20 75  1  0  0  0  0
 20 76  1  0  0  0  0
 20 77  1  0  0  0  0
 21 23  2  0  0  0  0
 21 78  1  0  0  0  0
 22 23  1  0  0  0  0
 22 79  1  0  0  0  0
 23 24  1  0  0  0  0
 24 25  2  0  0  0  0
 24 26  1  0  0  0  0
 26 27  1  0  0  0  0
 26 80  1  0  0  0  0
 27 28  1  0  0  0  0
 27 39  1  0  0  0  0
 27 81  1  0  0  0  0
 28 29  1  0  0  0  0
 28 82  1  0  0  0  0
 28 83  1  0  0  0  0
 29 30  1  0  0  0  0
 30 31  1  0  0  0  0
 30 84  1  0  0  0  0
 30 85  1  0  0  0  0
 31 32  1  0  0  0  0
 31 38  2  0  0  0  0
 32 33  2  0  0  0  0
 32 86  1  0  0  0  0
 33 34  1  0  0  0  0
 33 35  1  0  0  0  0
 35 36  2  0  0  0  0
 35 87  1  0  0  0  0
 36 37  1  0  0  0  0
 36 38  1  0  0  0  0
 38 88  1  0  0  0  0
 39 40  1  0  0  0  0
 39 41  1  0  0  0  0
 39 89  1  0  0  0  0
 40 90  1  0  0  0  0
 41 42  1  0  0  0  0
 41 91  1  0  0  0  0
 41 92  1  0  0  0  0
 42 43  1  0  0  0  0
 42 44  1  0  0  0  0
 42 93  1  0  0  0  0
 43 94  1  0  0  0  0
 43 95  1  0  0  0  0
 43 96  1  0  0  0  0
 44 45  2  0  0  0  0
 44 46  1  0  0  0  0
 46 47  1  0  0  0  0
 46 97  1  0  0  0  0
 47 48  1  0  0  0  0
 47 51  1  0  0  0  0
 47 98  1  0  0  0  0
 48 49  1  0  0  0  0
 48 50  1  0  0  0  0
 48 99  1  0  0  0  0
 49100  1  0  0  0  0
 49101  1  0  0  0  0
 49102  1  0  0  0  0
 50103  1  0  0  0  0
 50104  1  0  0  0  0
 50105  1  0  0  0  0
 51 52  2  0  0  0  0
 51 53  1  0  0  0  0
 53 54  1  0  0  0  0
 53106  1  0  0  0  0
 54 55  1  0  0  0  0
 54107  1  0  0  0  0
 54108  1  0  0  0  0
 55 56  1  0  0  0  0
 55 60  2  0  0  0  0
 56 57  2  0  0  0  0
 56109  1  0  0  0  0
 57 58  1  0  0  0  0
 57110  1  0  0  0  0
 58 59  2  0  0  0  0
 58111  1  0  0  0  0
 59 60  1  0  0  0  0
 59112  1  0  0  0  0
 60113  1  0  0  0  0
M  END
>  <PARENT_CMPD_ID>
CHEMBL1076901

>  <STANDARD_TYPE>
IC50

>  <RELATION>
=

>  <STANDARD_VALUE>
3.5999999

>  <STANDARD_UNITS>
nM

>  <COMPOUND_KEY>
33

>  <PUBMED_ID>
20036448

>  <JOURNAL>
Eur. J. Med. Chem.

>  <YEAR>
2010

>  <VOLUME>
45

>  <FIRST_PAGE>
870

>  <Company>
Medivir

>  <idx>
318

>  <Model>
Valid

>  <target>
8.4436979

>  <des_pred_mlr>
8.4907703

>  <RF_Canvas>
7.5528188

>  <DNN_Canvas>
6.8506522

>  <pred_CoMFA>
8.4726

>  <pred_COMSIA>
9.3455

>  <pred_abm5>
8.4299078

>  <pred_ff8>
7.3953199

>  <pred_gau6>
8.6767178

>  <CID>
BACE_318

>  <active>
1

>  <des_class_bayes>
1

>  <maacs_class_bayes>
1

>  <radial_class_bayes>
0

>  <dend_class_bayes>
1

>  <molprint_class_bayes>
1

>  <RF_canvas>
1

>  <DNN_canvas>
1

$$$$
22468684_28
  MOE2015           3D

 80 83  0  0  1  0  0  0  0  0999 V2000
   20.7480   13.9110   29.6350 C   0  0  0  0  0  0  0  0  0  0  0  0
   20.1120   13.0330   30.7090 C   0  0  0  0  0  0  0  0  0  0  0  0
   19.1030   12.5620   29.6650 C   0  0  0  0  0  0  0  0  0  0  0  0
   20.0800   13.0240   28.5590 C   0  0  0  0  0  0  0  0  0  0  0  0
   21.0120   11.9770   27.9740 C   0  0  0  0  0  0  0  0  0  0  0  0
   19.4910   13.7850   27.4920 O   0  0  0  0  0  0  0  0  0  0  0  0
   18.8580   13.0760   26.5080 C   0  0  0  0  0  0  0  0  0  0  0  0
   17.9680   13.7910   25.8030 N   0  0  0  0  0  0  0  0  0  0  0  0
   17.3300   13.1530   24.8080 C   0  0  0  0  0  0  0  0  0  0  0  0
   17.5150   11.8150   24.4940 C   0  0  0  0  0  0  0  0  0  0  0  0
   16.7230   11.1690   23.3990 C   0  0  0  0  0  0  0  0  0  0  0  0
   15.3890   10.5180   23.8220 C   0  0  0  0  0  0  0  0  0  0  0  0
   14.4850   11.4950   24.5730 C   0  0  0  0  0  0  0  0  0  0  0  0
   15.6270    9.2850   24.6940 C   0  0  0  0  0  0  0  0  0  0  0  0
   14.6580   10.0740   22.5510 C   0  0  0  0  0  0  0  0  0  0  0  0
   18.4460   11.1090   25.2460 C   0  0  0  0  0  0  0  0  0  0  0  0
   19.1630   11.7460   26.2590 C   0  0  0  0  0  0  0  0  0  0  0  0
   20.2130   11.0380   27.0630 C   0  0  3  0  0  0  0  0  0  0  0  0
   21.1910   10.2380   26.2350 N   0  3  0  0  0  0  0  0  0  0  0  0
   21.9140   10.9970   25.1550 C   0  0  0  0  0  0  0  0  0  0  0  0
   22.3510   10.0150   24.0750 C   0  0  3  0  0  0  0  0  0  0  0  0
   21.2100    9.2450   23.6790 O   0  0  0  0  0  0  0  0  0  0  0  0
   22.9790   10.7190   22.8550 C   0  0  3  0  0  0  0  0  0  0  0  0
   24.0040   11.6730   23.2600 N   0  0  0  0  0  0  0  0  0  0  0  0
   23.7600   13.0290   23.3360 C   0  0  0  0  0  0  0  0  0  0  0  0
   22.6680   13.5310   23.0970 O   0  0  0  0  0  0  0  0  0  0  0  0
   24.9390   13.8410   23.8440 C   0  0  0  0  0  0  0  0  0  0  0  0
   26.1800   13.3010   23.4190 O   0  0  0  0  0  0  0  0  0  0  0  0
   26.5840   13.8210   22.1610 C   0  0  0  0  0  0  0  0  0  0  0  0
   23.5030    9.6610   21.8660 C   0  0  0  0  0  0  0  0  0  0  0  0
   24.3790   10.2350   20.7950 C   0  0  0  0  0  0  0  0  0  0  0  0
   25.7640   10.1930   20.9680 C   0  0  0  0  0  0  0  0  0  0  0  0
   23.8420   10.8520   19.6700 C   0  0  0  0  0  0  0  0  0  0  0  0
   22.7660   10.9030   19.5230 H   0  0  0  0  0  0  0  0  0  0  0  0
   24.6880   11.4200   18.7310 C   0  0  0  0  0  0  0  0  0  0  0  0
   26.0610   11.3780   18.9290 C   0  0  0  0  0  0  0  0  0  0  0  0
   26.6150   10.7680   20.0410 C   0  0  0  0  0  0  0  0  0  0  0  0
   21.8420   13.9330   29.6410 H   0  0  0  0  0  0  0  0  0  0  0  0
   20.3850   14.9460   29.6440 H   0  0  0  0  0  0  0  0  0  0  0  0
   19.6930   13.5640   31.5680 H   0  0  0  0  0  0  0  0  0  0  0  0
   20.7720   12.2380   31.0740 H   0  0  0  0  0  0  0  0  0  0  0  0
   18.1600   13.1210   29.6840 H   0  0  0  0  0  0  0  0  0  0  0  0
   18.8690   11.4940   29.7010 H   0  0  0  0  0  0  0  0  0  0  0  0
   21.5150   11.3940   28.7550 H   0  0  0  0  0  0  0  0  0  0  0  0
   21.8030   12.4930   27.4160 H   0  0  0  0  0  0  0  0  0  0  0  0
   16.6240   13.7700   24.2580 H   0  0  0  0  0  0  0  0  0  0  0  0
   17.3590   10.4240   22.8990 H   0  0  0  0  0  0  0  0  0  0  0  0
   16.5300   11.9280   22.6270 H   0  0  0  0  0  0  0  0  0  0  0  0
   14.8980   11.7730   25.5490 H   0  0  0  0  0  0  0  0  0  0  0  0
   13.4990   11.0550   24.7630 H   0  0  0  0  0  0  0  0  0  0  0  0
   14.3260   12.4140   23.9980 H   0  0  0  0  0  0  0  0  0  0  0  0
   16.0610    9.5470   25.6640 H   0  0  0  0  0  0  0  0  0  0  0  0
   16.3020    8.5730   24.2050 H   0  0  0  0  0  0  0  0  0  0  0  0
   14.6870    8.7570   24.8980 H   0  0  0  0  0  0  0  0  0  0  0  0
   14.4390   10.9270   21.8980 H   0  0  0  0  0  0  0  0  0  0  0  0
   13.7040    9.5860   22.7850 H   0  0  0  0  0  0  0  0  0  0  0  0
   15.2590    9.3610   21.9750 H   0  0  0  0  0  0  0  0  0  0  0  0
   18.6040   10.0550   25.0280 H   0  0  0  0  0  0  0  0  0  0  0  0
   19.7020   10.2960   27.6880 H   0  0  0  0  0  0  0  0  0  0  0  0
   20.6860    9.4790   25.7450 H   0  0  0  0  0  0  0  0  0  0  0  0
   21.8660    9.7560   26.8440 H   0  0  0  0  0  0  0  0  0  0  0  0
   22.7600   11.5000   25.6300 H   0  0  0  0  0  0  0  0  0  0  0  0
   21.2260   11.7350   24.7350 H   0  0  0  0  0  0  0  0  0  0  0  0
   23.0730    9.3160   24.5150 H   0  0  0  0  0  0  0  0  0  0  0  0
   20.7440    9.7020   22.9530 H   0  0  0  0  0  0  0  0  0  0  0  0
   22.1910   11.2780   22.3320 H   0  0  0  0  0  0  0  0  0  0  0  0
   24.9520   11.3680   23.4750 H   0  0  0  0  0  0  0  0  0  0  0  0
   24.8300   14.8890   23.5440 H   0  0  0  0  0  0  0  0  0  0  0  0
   24.9140   13.7950   24.9380 H   0  0  0  0  0  0  0  0  0  0  0  0
   27.5280   13.3470   21.8800 H   0  0  0  0  0  0  0  0  0  0  0  0
   26.7500   14.9010   22.2300 H   0  0  0  0  0  0  0  0  0  0  0  0
   25.8360   13.6060   21.3920 H   0  0  0  0  0  0  0  0  0  0  0  0
   22.6630    9.1280   21.4020 H   0  0  0  0  0  0  0  0  0  0  0  0
   24.0680    8.8910   22.4090 H   0  0  0  0  0  0  0  0  0  0  0  0
   26.1860    9.7100   21.8480 H   0  0  0  0  0  0  0  0  0  0  0  0
   24.2870   11.9090   17.8490 H   0  0  0  0  0  0  0  0  0  0  0  0
   26.8490   11.9520   18.0170 F   0  0  0  0  0  0  0  0  0  0  0  0
   28.0260   10.7190   20.2780 C   0  0  0  0  0  0  0  0  0  0  0  0
   29.1990   10.6600   20.5300 C   0  0  0  0  0  0  0  0  0  0  0  0
   30.2400   10.6100   20.7490 H   0  0  0  0  0  0  0  0  0  0  0  0
  1  2  1  0  0  0  0
  1  4  1  0  0  0  0
  1 38  1  0  0  0  0
  1 39  1  0  0  0  0
  2  3  1  0  0  0  0
  2 40  1  0  0  0  0
  2 41  1  0  0  0  0
  3  4  1  0  0  0  0
  3 42  1  0  0  0  0
  3 43  1  0  0  0  0
  4  5  1  0  0  0  0
  4  6  1  0  0  0  0
  5 18  1  0  0  0  0
  5 44  1  0  0  0  0
  5 45  1  0  0  0  0
  6  7  1  0  0  0  0
  7  8  1  0  0  0  0
  7 17  2  0  0  0  0
  8  9  2  0  0  0  0
  9 10  1  0  0  0  0
  9 46  1  0  0  0  0
 10 11  1  0  0  0  0
 10 16  2  0  0  0  0
 11 12  1  0  0  0  0
 11 47  1  0  0  0  0
 11 48  1  0  0  0  0
 12 13  1  0  0  0  0
 12 14  1  0  0  0  0
 12 15  1  0  0  0  0
 13 49  1  0  0  0  0
 13 50  1  0  0  0  0
 13 51  1  0  0  0  0
 14 52  1  0  0  0  0
 14 53  1  0  0  0  0
 14 54  1  0  0  0  0
 15 55  1  0  0  0  0
 15 56  1  0  0  0  0
 15 57  1  0  0  0  0
 16 17  1  0  0  0  0
 16 58  1  0  0  0  0
 17 18  1  0  0  0  0
 18 19  1  0  0  0  0
 18 59  1  0  0  0  0
 19 20  1  0  0  0  0
 19 60  1  0  0  0  0
 19 61  1  0  0  0  0
 20 21  1  0  0  0  0
 20 62  1  0  0  0  0
 20 63  1  0  0  0  0
 21 22  1  0  0  0  0
 21 23  1  0  0  0  0
 21 64  1  0  0  0  0
 22 65  1  0  0  0  0
 23 24  1  0  0  0  0
 23 30  1  0  0  0  0
 23 66  1  0  0  0  0
 24 25  1  0  0  0  0
 24 67  1  0  0  0  0
 25 26  2  0  0  0  0
 25 27  1  0  0  0  0
 27 28  1  0  0  0  0
 27 68  1  0  0  0  0
 27 69  1  0  0  0  0
 28 29  1  0  0  0  0
 29 70  1  0  0  0  0
 29 71  1  0  0  0  0
 29 72  1  0  0  0  0
 30 31  1  0  0  0  0
 30 73  1  0  0  0  0
 30 74  1  0  0  0  0
 31 32  1  0  0  0  0
 31 33  2  0  0  0  0
 32 37  2  0  0  0  0
 32 75  1  0  0  0  0
 33 34  1  0  0  0  0
 33 35  1  0  0  0  0
 35 36  2  0  0  0  0
 35 76  1  0  0  0  0
 36 37  1  0  0  0  0
 36 77  1  0  0  0  0
 37 78  1  0  0  0  0
 78 79  3  0  0  0  0
 79 80  1  0  0  0  0
M  CHG  1  19   1
M  END
>  <PARENT_CMPD_ID>
22468684_28

>  <STANDARD_TYPE>
IC50

>  <RELATION>
=

>  <STANDARD_VALUE>
3.7

>  <STANDARD_UNITS>
nM

>  <COMPOUND_KEY>
28

>  <PUBMED_ID>
22468684

>  <JOURNAL>
J.Med.Chem.

>  <YEAR>
2012

>  <VOLUME>
55

>  <FIRST_PAGE>
9025

>  <Company>
Amgen

>  <idx>
319

>  <Model>
Valid

>  <target>
8.431798

>  <des_pred_mlr>
7.5218401

>  <RF_Canvas>
7.999228

>  <DNN_Canvas>
7.3688993

>  <pred_CoMFA>
8.4155998

>  <pred_COMSIA>
8.1821003

>  <pred_abm5>
8.5787821

>  <pred_ff8>
7.9466467

>  <pred_gau6>
8.8280048

>  <CID>
BACE_319

>  <active>
1

>  <des_class_bayes>
1

>  <maacs_class_bayes>
1

>  <radial_class_bayes>
1

>  <dend_class_bayes>
1

>  <molprint_class_bayes>
1

>  <RF_canvas>
1

>  <DNN_canvas>
1

$$$$
22468684_34
  MOE2015           3D

 80 84  0  0  1  0  0  0  0  0999 V2000
   20.7540   13.9060   29.6270 C   0  0  0  0  0  0  0  0  0  0  0  0
   20.1180   13.0260   30.7000 C   0  0  0  0  0  0  0  0  0  0  0  0
   19.1120   12.5530   29.6540 C   0  0  0  0  0  0  0  0  0  0  0  0
   20.0890   13.0190   28.5490 C   0  0  0  0  0  0  0  0  0  0  0  0
   21.0230   11.9760   27.9600 C   0  0  0  0  0  0  0  0  0  0  0  0
   19.4980   13.7830   27.4850 O   0  0  0  0  0  0  0  0  0  0  0  0
   18.8670   13.0760   26.4980 C   0  0  0  0  0  0  0  0  0  0  0  0
   17.9740   13.7910   25.7980 N   0  0  0  0  0  0  0  0  0  0  0  0
   17.3330   13.1530   24.8050 C   0  0  0  0  0  0  0  0  0  0  0  0
   17.5180   11.8160   24.4880 C   0  0  0  0  0  0  0  0  0  0  0  0
   16.7220   11.1700   23.3950 C   0  0  0  0  0  0  0  0  0  0  0  0
   15.3910   10.5190   23.8220 C   0  0  0  0  0  0  0  0  0  0  0  0
   14.4880   11.4960   24.5750 C   0  0  0  0  0  0  0  0  0  0  0  0
   15.6310    9.2860   24.6930 C   0  0  0  0  0  0  0  0  0  0  0  0
   14.6560   10.0750   22.5530 C   0  0  0  0  0  0  0  0  0  0  0  0
   18.4530   11.1100   25.2350 C   0  0  0  0  0  0  0  0  0  0  0  0
   19.1730   11.7470   26.2460 C   0  0  0  0  0  0  0  0  0  0  0  0
   20.2260   11.0380   27.0460 C   0  0  3  0  0  0  0  0  0  0  0  0
   21.2030   10.2380   26.2160 N   0  3  0  0  0  0  0  0  0  0  0  0
   21.9310   10.9980   25.1380 C   0  0  0  0  0  0  0  0  0  0  0  0
   22.3670   10.0180   24.0540 C   0  0  3  0  0  0  0  0  0  0  0  0
   21.2220    9.2520   23.6610 O   0  0  0  0  0  0  0  0  0  0  0  0
   23.0040   10.7340   22.8420 C   0  0  3  0  0  0  0  0  0  0  0  0
   24.0440   11.6650   23.2770 N   0  0  0  0  0  0  0  0  0  0  0  0
   23.8110   13.0200   23.3690 C   0  0  0  0  0  0  0  0  0  0  0  0
   22.7240   13.5290   23.1200 O   0  0  0  0  0  0  0  0  0  0  0  0
   24.9740   13.8120   23.8970 C   0  0  0  0  0  0  0  0  0  0  0  0
   23.5230    9.6930   21.8280 C   0  0  0  0  0  0  0  0  0  0  0  0
   24.3480   10.2900   20.7270 C   0  0  0  0  0  0  0  0  0  0  0  0
   25.7350   10.3360   20.8720 C   0  0  0  0  0  0  0  0  0  0  0  0
   23.7670   10.8460   19.5950 C   0  0  0  0  0  0  0  0  0  0  0  0
   24.5650   11.4420   18.6290 C   0  0  0  0  0  0  0  0  0  0  0  0
   25.9450   11.5000   18.7960 C   0  0  0  0  0  0  0  0  0  0  0  0
   26.5510   10.9460   19.9220 C   0  0  0  0  0  0  0  0  0  0  0  0
   28.0000   11.0670   20.1160 C   0  0  0  0  0  0  0  0  0  0  0  0
   28.7300   12.0590   19.6520 N   0  0  0  0  0  0  0  0  0  0  0  0
   30.0420   11.8990   20.0320 C   0  0  0  0  0  0  0  0  0  0  0  0
   30.3150   10.7780   20.7790 C   0  0  0  0  0  0  0  0  0  0  0  0
   28.8850    9.8840   21.0050 S   0  0  0  0  0  0  0  0  0  0  0  0
   21.8480   13.9280   29.6360 H   0  0  0  0  0  0  0  0  0  0  0  0
   20.3900   14.9400   29.6380 H   0  0  0  0  0  0  0  0  0  0  0  0
   19.6960   13.5550   31.5580 H   0  0  0  0  0  0  0  0  0  0  0  0
   20.7780   12.2320   31.0660 H   0  0  0  0  0  0  0  0  0  0  0  0
   18.1670   13.1090   29.6730 H   0  0  0  0  0  0  0  0  0  0  0  0
   18.8820   11.4840   29.6880 H   0  0  0  0  0  0  0  0  0  0  0  0
   21.5270   11.3910   28.7400 H   0  0  0  0  0  0  0  0  0  0  0  0
   21.8130   12.4950   27.4040 H   0  0  0  0  0  0  0  0  0  0  0  0
   16.6220   13.7700   24.2600 H   0  0  0  0  0  0  0  0  0  0  0  0
   17.3570   10.4260   22.8930 H   0  0  0  0  0  0  0  0  0  0  0  0
   16.5280   11.9300   22.6240 H   0  0  0  0  0  0  0  0  0  0  0  0
   14.9030   11.7730   25.5500 H   0  0  0  0  0  0  0  0  0  0  0  0
   13.5020   11.0550   24.7670 H   0  0  0  0  0  0  0  0  0  0  0  0
   14.3270   12.4150   24.0000 H   0  0  0  0  0  0  0  0  0  0  0  0
   16.0680    9.5480   25.6620 H   0  0  0  0  0  0  0  0  0  0  0  0
   16.3040    8.5750   24.2020 H   0  0  0  0  0  0  0  0  0  0  0  0
   14.6920    8.7590   24.9010 H   0  0  0  0  0  0  0  0  0  0  0  0
   14.4350   10.9270   21.9000 H   0  0  0  0  0  0  0  0  0  0  0  0
   13.7030    9.5870   22.7890 H   0  0  0  0  0  0  0  0  0  0  0  0
   15.2560    9.3620   21.9750 H   0  0  0  0  0  0  0  0  0  0  0  0
   18.6130   10.0570   25.0140 H   0  0  0  0  0  0  0  0  0  0  0  0
   19.7160   10.2940   27.6710 H   0  0  0  0  0  0  0  0  0  0  0  0
   20.6970    9.4860   25.7180 H   0  0  0  0  0  0  0  0  0  0  0  0
   21.8740    9.7500   26.8230 H   0  0  0  0  0  0  0  0  0  0  0  0
   22.7770   11.4970   25.6180 H   0  0  0  0  0  0  0  0  0  0  0  0
   21.2440   11.7390   24.7210 H   0  0  0  0  0  0  0  0  0  0  0  0
   23.0870    9.3150   24.4900 H   0  0  0  0  0  0  0  0  0  0  0  0
   20.8010    9.6720   22.8870 H   0  0  0  0  0  0  0  0  0  0  0  0
   22.2230   11.3120   22.3300 H   0  0  0  0  0  0  0  0  0  0  0  0
   24.9660   11.3080   23.5070 H   0  0  0  0  0  0  0  0  0  0  0  0
   24.9230   14.8340   23.5100 H   0  0  0  0  0  0  0  0  0  0  0  0
   24.9290   13.8310   24.9890 H   0  0  0  0  0  0  0  0  0  0  0  0
   25.9230   13.3690   23.5820 H   0  0  0  0  0  0  0  0  0  0  0  0
   22.6810    9.1410   21.3900 H   0  0  0  0  0  0  0  0  0  0  0  0
   24.1250    8.9360   22.3500 H   0  0  0  0  0  0  0  0  0  0  0  0
   26.1730    9.9090   21.7720 H   0  0  0  0  0  0  0  0  0  0  0  0
   22.6880   10.8320   19.4610 H   0  0  0  0  0  0  0  0  0  0  0  0
   24.1090   11.8830   17.7460 H   0  0  0  0  0  0  0  0  0  0  0  0
   26.5500   11.9930   18.0370 H   0  0  0  0  0  0  0  0  0  0  0  0
   30.7720   12.6410   19.7340 H   0  0  0  0  0  0  0  0  0  0  0  0
   31.2640   10.4540   21.1810 H   0  0  0  0  0  0  0  0  0  0  0  0
  1  2  1  0  0  0  0
  1  4  1  0  0  0  0
  1 40  1  0  0  0  0
  1 41  1  0  0  0  0
  2  3  1  0  0  0  0
  2 42  1  0  0  0  0
  2 43  1  0  0  0  0
  3  4  1  0  0  0  0
  3 44  1  0  0  0  0
  3 45  1  0  0  0  0
  4  5  1  0  0  0  0
  4  6  1  0  0  0  0
  5 18  1  0  0  0  0
  5 46  1  0  0  0  0
  5 47  1  0  0  0  0
  6  7  1  0  0  0  0
  7  8  1  0  0  0  0
  7 17  2  0  0  0  0
  8  9  2  0  0  0  0
  9 10  1  0  0  0  0
  9 48  1  0  0  0  0
 10 11  1  0  0  0  0
 10 16  2  0  0  0  0
 11 12  1  0  0  0  0
 11 49  1  0  0  0  0
 11 50  1  0  0  0  0
 12 13  1  0  0  0  0
 12 14  1  0  0  0  0
 12 15  1  0  0  0  0
 13 51  1  0  0  0  0
 13 52  1  0  0  0  0
 13 53  1  0  0  0  0
 14 54  1  0  0  0  0
 14 55  1  0  0  0  0
 14 56  1  0  0  0  0
 15 57  1  0  0  0  0
 15 58  1  0  0  0  0
 15 59  1  0  0  0  0
 16 17  1  0  0  0  0
 16 60  1  0  0  0  0
 17 18  1  0  0  0  0
 18 19  1  0  0  0  0
 18 61  1  0  0  0  0
 19 20  1  0  0  0  0
 19 62  1  0  0  0  0
 19 63  1  0  0  0  0
 20 21  1  0  0  0  0
 20 64  1  0  0  0  0
 20 65  1  0  0  0  0
 21 22  1  0  0  0  0
 21 23  1  0  0  0  0
 21 66  1  0  0  0  0
 22 67  1  0  0  0  0
 23 24  1  0  0  0  0
 23 28  1  0  0  0  0
 23 68  1  0  0  0  0
 24 25  1  0  0  0  0
 24 69  1  0  0  0  0
 25 26  2  0  0  0  0
 25 27  1  0  0  0  0
 27 70  1  0  0  0  0
 27 71  1  0  0  0  0
 27 72  1  0  0  0  0
 28 29  1  0  0  0  0
 28 73  1  0  0  0  0
 28 74  1  0  0  0  0
 29 30  1  0  0  0  0
 29 31  2  0  0  0  0
 30 34  2  0  0  0  0
 30 75  1  0  0  0  0
 31 32  1  0  0  0  0
 31 76  1  0  0  0  0
 32 33  2  0  0  0  0
 32 77  1  0  0  0  0
 33 34  1  0  0  0  0
 33 78  1  0  0  0  0
 34 35  1  0  0  0  0
 35 36  2  0  0  0  0
 35 39  1  0  0  0  0
 36 37  1  0  0  0  0
 37 38  2  0  0  0  0
 37 79  1  0  0  0  0
 38 39  1  0  0  0  0
 38 80  1  0  0  0  0
M  CHG  1  19   1
M  END
>  <PARENT_CMPD_ID>
22468684_34

>  <STANDARD_TYPE>
IC50

>  <RELATION>
=

>  <STANDARD_VALUE>
3.7

>  <STANDARD_UNITS>
nM

>  <COMPOUND_KEY>
34

>  <PUBMED_ID>
22468684

>  <JOURNAL>
J.Med.Chem.

>  <YEAR>
2012

>  <VOLUME>
55

>  <FIRST_PAGE>
9025

>  <Company>
Amgen

>  <idx>
320

>  <Model>
Valid

>  <target>
8.431798

>  <des_pred_mlr>
7.3405299

>  <RF_Canvas>
7.8380604

>  <DNN_Canvas>
7.9521718

>  <pred_CoMFA>
8.7206001

>  <pred_COMSIA>
8.4951

>  <pred_abm5>
8.7508593

>  <pred_ff8>
8.420495

>  <pred_gau6>
8.5910158

>  <CID>
BACE_320

>  <active>
1

>  <des_class_bayes>
0

>  <maacs_class_bayes>
1

>  <radial_class_bayes>
1

>  <dend_class_bayes>
1

>  <molprint_class_bayes>
1

>  <RF_canvas>
1

>  <DNN_canvas>
1

$$$$
mcl886_25
  MOE2015           3D

 77 80  0  0  1  0  0  0  0  0999 V2000
   18.6570   12.1850   29.4770 C   0  0  0  0  0  0  0  0  0  0  0  0
   19.6200   12.6660   30.5590 C   0  0  0  0  0  0  0  0  0  0  0  0
   20.2640   13.5810   29.5230 C   0  0  0  0  0  0  0  0  0  0  0  0
   19.6510   12.7020   28.4090 C   0  0  0  0  0  0  0  0  0  0  0  0
   20.6280   11.7010   27.8170 C   0  0  0  0  0  0  0  0  0  0  0  0
   19.0640   13.4690   27.3460 O   0  0  0  0  0  0  0  0  0  0  0  0
   18.4380   12.7540   26.3610 C   0  0  0  0  0  0  0  0  0  0  0  0
   17.4950   13.4400   25.6980 N   0  0  0  0  0  0  0  0  0  0  0  0
   16.8530   12.7880   24.7150 C   0  0  0  0  0  0  0  0  0  0  0  0
   17.0860   11.4640   24.3760 C   0  0  0  0  0  0  0  0  0  0  0  0
   16.2950   10.8020   23.2890 C   0  0  0  0  0  0  0  0  0  0  0  0
   14.9750   10.1330   23.7190 C   0  0  0  0  0  0  0  0  0  0  0  0
   14.0450   11.1090   24.4400 C   0  0  0  0  0  0  0  0  0  0  0  0
   15.2320    8.9260   24.6220 C   0  0  0  0  0  0  0  0  0  0  0  0
   14.2630    9.6440   22.4530 C   0  0  0  0  0  0  0  0  0  0  0  0
   18.0710   10.7880   25.0860 C   0  0  0  0  0  0  0  0  0  0  0  0
   18.7920   11.4420   26.0850 C   0  0  0  0  0  0  0  0  0  0  0  0
   19.8830   10.7650   26.8600 C   0  0  3  0  0  0  0  0  0  0  0  0
   20.8970   10.0460   26.0050 N   0  3  0  0  0  0  0  0  0  0  0  0
   21.6090   10.8700   24.9670 C   0  0  0  0  0  0  0  0  0  0  0  0
   22.1060    9.9280   23.8730 C   0  0  3  0  0  0  0  0  0  0  0  0
   21.0030    9.1190   23.4500 O   0  0  0  0  0  0  0  0  0  0  0  0
   22.7130   10.7030   22.6920 C   0  0  3  0  0  0  0  0  0  0  0  0
   23.8690   11.4830   23.1220 N   0  0  0  0  0  0  0  0  0  0  0  0
   23.7850   12.8380   23.3370 C   0  0  0  0  0  0  0  0  0  0  0  0
   25.0820   13.4730   23.7410 C   0  0  0  0  0  0  0  0  0  0  0  0
   22.7380   13.4680   23.2420 O   0  0  0  0  0  0  0  0  0  0  0  0
   23.0830    9.7680   21.5270 C   0  0  0  0  0  0  0  0  0  0  0  0
   23.7660   10.4990   20.4060 C   0  0  0  0  0  0  0  0  0  0  0  0
   25.0900   10.2040   20.0910 C   0  0  0  0  0  0  0  0  0  0  0  0
   25.7570   10.9140   19.1000 C   0  0  0  0  0  0  0  0  0  0  0  0
   27.1850   10.6290   18.7840 C   0  0  0  0  0  0  0  0  0  0  0  0
   27.4690    9.6190   19.0990 H   0  0  0  0  0  0  0  0  0  0  0  0
   27.8350   11.3460   19.2960 H   0  0  0  0  0  0  0  0  0  0  0  0
   27.3670   10.6910   17.7060 H   0  0  0  0  0  0  0  0  0  0  0  0
   25.0900   11.9340   18.4430 C   0  0  0  0  0  0  0  0  0  0  0  0
   25.7270   12.6430   17.5090 F   0  0  0  0  0  0  0  0  0  0  0  0
   23.7740   12.2340   18.7310 C   0  0  0  0  0  0  0  0  0  0  0  0
   23.1090   11.5100   19.7060 C   0  0  0  0  0  0  0  0  0  0  0  0
   17.6960   12.7130   29.4810 H   0  0  0  0  0  0  0  0  0  0  0  0
   18.4590   11.1090   29.4830 H   0  0  0  0  0  0  0  0  0  0  0  0
   20.2900   11.8820   30.9310 H   0  0  0  0  0  0  0  0  0  0  0  0
   19.1590   13.1680   31.4140 H   0  0  0  0  0  0  0  0  0  0  0  0
   21.3560   13.6280   29.5620 H   0  0  0  0  0  0  0  0  0  0  0  0
   19.8750   14.6060   29.5420 H   0  0  0  0  0  0  0  0  0  0  0  0
   21.1320   11.1120   28.5940 H   0  0  0  0  0  0  0  0  0  0  0  0
   21.4150   12.2580   27.2940 H   0  0  0  0  0  0  0  0  0  0  0  0
   16.1040   13.3820   24.1970 H   0  0  0  0  0  0  0  0  0  0  0  0
   16.9390   10.0640   22.7880 H   0  0  0  0  0  0  0  0  0  0  0  0
   16.0890   11.5560   22.5150 H   0  0  0  0  0  0  0  0  0  0  0  0
   14.4420   11.4140   25.4140 H   0  0  0  0  0  0  0  0  0  0  0  0
   13.0660   10.6530   24.6300 H   0  0  0  0  0  0  0  0  0  0  0  0
   13.8730   12.0120   23.8430 H   0  0  0  0  0  0  0  0  0  0  0  0
   15.6620    9.2210   25.5850 H   0  0  0  0  0  0  0  0  0  0  0  0
   15.9210    8.2150   24.1510 H   0  0  0  0  0  0  0  0  0  0  0  0
   14.3020    8.3880   24.8390 H   0  0  0  0  0  0  0  0  0  0  0  0
   14.0320   10.4760   21.7780 H   0  0  0  0  0  0  0  0  0  0  0  0
   13.3180    9.1420   22.6910 H   0  0  0  0  0  0  0  0  0  0  0  0
   14.8830    8.9300   21.8980 H   0  0  0  0  0  0  0  0  0  0  0  0
   18.2660    9.7440   24.8500 H   0  0  0  0  0  0  0  0  0  0  0  0
   19.4110    9.9720   27.4560 H   0  0  0  0  0  0  0  0  0  0  0  0
   20.4290    9.2890   25.4750 H   0  0  0  0  0  0  0  0  0  0  0  0
   21.5830    9.5620   26.6000 H   0  0  0  0  0  0  0  0  0  0  0  0
   22.4250   11.3940   25.4710 H   0  0  0  0  0  0  0  0  0  0  0  0
   20.8950   11.5880   24.5560 H   0  0  0  0  0  0  0  0  0  0  0  0
   22.8540    9.2470   24.2970 H   0  0  0  0  0  0  0  0  0  0  0  0
   20.4970    9.5920   22.7620 H   0  0  0  0  0  0  0  0  0  0  0  0
   21.9450   11.3940   22.3200 H   0  0  0  0  0  0  0  0  0  0  0  0
   24.7640   11.0170   23.2440 H   0  0  0  0  0  0  0  0  0  0  0  0
   25.9220   13.0060   23.2180 H   0  0  0  0  0  0  0  0  0  0  0  0
   25.2190   13.3580   24.8190 H   0  0  0  0  0  0  0  0  0  0  0  0
   25.0640   14.5360   23.4870 H   0  0  0  0  0  0  0  0  0  0  0  0
   22.1880    9.2760   21.1240 H   0  0  0  0  0  0  0  0  0  0  0  0
   23.7330    8.9640   21.8970 H   0  0  0  0  0  0  0  0  0  0  0  0
   25.6160    9.4170   20.6290 H   0  0  0  0  0  0  0  0  0  0  0  0
   23.2730   13.0340   18.1950 H   0  0  0  0  0  0  0  0  0  0  0  0
   22.0740   11.7590   19.9280 H   0  0  0  0  0  0  0  0  0  0  0  0
  1  2  1  0  0  0  0
  1  4  1  0  0  0  0
  1 40  1  0  0  0  0
  1 41  1  0  0  0  0
  2  3  1  0  0  0  0
  2 42  1  0  0  0  0
  2 43  1  0  0  0  0
  3  4  1  0  0  0  0
  3 44  1  0  0  0  0
  3 45  1  0  0  0  0
  4  5  1  0  0  0  0
  4  6  1  0  0  0  0
  5 18  1  0  0  0  0
  5 46  1  0  0  0  0
  5 47  1  0  0  0  0
  6  7  1  0  0  0  0
  7  8  1  0  0  0  0
  7 17  2  0  0  0  0
  8  9  2  0  0  0  0
  9 10  1  0  0  0  0
  9 48  1  0  0  0  0
 10 11  1  0  0  0  0
 10 16  2  0  0  0  0
 11 12  1  0  0  0  0
 11 49  1  0  0  0  0
 11 50  1  0  0  0  0
 12 13  1  0  0  0  0
 12 14  1  0  0  0  0
 12 15  1  0  0  0  0
 13 51  1  0  0  0  0
 13 52  1  0  0  0  0
 13 53  1  0  0  0  0
 14 54  1  0  0  0  0
 14 55  1  0  0  0  0
 14 56  1  0  0  0  0
 15 57  1  0  0  0  0
 15 58  1  0  0  0  0
 15 59  1  0  0  0  0
 16 17  1  0  0  0  0
 16 60  1  0  0  0  0
 17 18  1  0  0  0  0
 18 19  1  0  0  0  0
 18 61  1  0  0  0  0
 19 20  1  0  0  0  0
 19 62  1  0  0  0  0
 19 63  1  0  0  0  0
 20 21  1  0  0  0  0
 20 64  1  0  0  0  0
 20 65  1  0  0  0  0
 21 22  1  0  0  0  0
 21 23  1  0  0  0  0
 21 66  1  0  0  0  0
 22 67  1  0  0  0  0
 23 24  1  0  0  0  0
 23 28  1  0  0  0  0
 23 68  1  0  0  0  0
 24 25  1  0  0  0  0
 24 69  1  0  0  0  0
 25 26  1  0  0  0  0
 25 27  2  0  0  0  0
 26 70  1  0  0  0  0
 26 71  1  0  0  0  0
 26 72  1  0  0  0  0
 28 29  1  0  0  0  0
 28 73  1  0  0  0  0
 28 74  1  0  0  0  0
 29 30  1  0  0  0  0
 29 39  2  0  0  0  0
 30 31  2  0  0  0  0
 30 75  1  0  0  0  0
 31 32  1  0  0  0  0
 31 36  1  0  0  0  0
 32 33  1  0  0  0  0
 32 34  1  0  0  0  0
 32 35  1  0  0  0  0
 36 37  1  0  0  0  0
 36 38  2  0  0  0  0
 38 39  1  0  0  0  0
 38 76  1  0  0  0  0
 39 77  1  0  0  0  0
M  CHG  1  19   1
M  END
>  <PARENT_CMPD_ID>
mcl886_25

>  <STANDARD_TYPE>
IC50

>  <RELATION>
=

>  <STANDARD_VALUE>
4

>  <STANDARD_UNITS>
nM

>  <COMPOUND_KEY>
25

>  <PUBMED_ID>
24900403

>  <JOURNAL>
ACS Med. Chem. Lett.

>  <YEAR>
2012

>  <VOLUME>
3

>  <FIRST_PAGE>
886

>  <Company>
Amgen

>  <idx>
321

>  <Model>
Valid

>  <target>
8.3979397

>  <des_pred_mlr>
7.1784

>  <RF_Canvas>
7.9902806

>  <DNN_Canvas>
7.9787345

>  <pred_CoMFA>
7.7715998

>  <pred_COMSIA>
7.4261999

>  <pred_abm5>
8.0881329

>  <pred_ff8>
7.5623565

>  <pred_gau6>
7.785727

>  <CID>
BACE_321

>  <active>
1

>  <des_class_bayes>
0

>  <maacs_class_bayes>
1

>  <radial_class_bayes>
1

>  <dend_class_bayes>
1

>  <molprint_class_bayes>
1

>  <RF_canvas>
1

>  <DNN_canvas>
1

$$$$
CHEMBL538636
  MOE2015           3D

 86 88  0  0  1  0  0  0  0  0999 V2000
   30.3390   10.5730   20.9950 C   0  0  0  0  0  0  0  0  0  0  0  0
   30.2880   12.0470   21.3320 C   0  0  0  0  0  0  0  0  0  0  0  0
   28.8540   12.5160   21.3690 C   0  0  0  0  0  0  0  0  0  0  0  0
   28.7290   13.8740   21.8430 N   0  0  0  0  0  0  0  0  0  0  0  0
   28.9610   14.9850   20.9500 C   0  0  0  0  0  0  0  0  0  0  0  0
   27.8460   15.1970   19.9570 C   0  0  0  0  0  0  0  0  0  0  0  0
   28.1250   16.4400   19.1410 C   0  0  0  0  0  0  0  0  0  0  0  0
   28.5180   14.1100   23.1830 C   0  0  0  0  0  0  0  0  0  0  0  0
   29.3960   13.9830   24.0260 O   0  0  0  0  0  0  0  0  0  0  0  0
   27.1670   14.5540   23.5610 C   0  0  0  0  0  0  0  0  0  0  0  0
   27.0410   15.6520   24.3930 C   0  0  0  0  0  0  0  0  0  0  0  0
   25.7810   16.0310   24.8410 C   0  0  0  0  0  0  0  0  0  0  0  0
   24.6480   15.2960   24.4980 C   0  0  0  0  0  0  0  0  0  0  0  0
   24.7920   14.1590   23.7080 C   0  0  0  0  0  0  0  0  0  0  0  0
   26.0470   13.8120   23.2010 C   0  0  0  0  0  0  0  0  0  0  0  0
   23.6080   13.3000   23.4590 C   0  0  0  0  0  0  0  0  0  0  0  0
   22.4720   13.7530   23.3950 O   0  0  0  0  0  0  0  0  0  0  0  0
   23.8640   11.9510   23.3520 N   0  0  0  0  0  0  0  0  0  0  0  0
   22.8390   10.9900   22.9570 C   0  0  3  0  0  0  0  0  0  0  0  0
   23.3760   10.0570   21.8590 C   0  0  0  0  0  0  0  0  0  0  0  0
   23.9140   10.8110   20.6710 C   0  0  0  0  0  0  0  0  0  0  0  0
   23.1290   11.7400   19.9870 C   0  0  0  0  0  0  0  0  0  0  0  0
   23.6680   12.4720   18.9410 C   0  0  0  0  0  0  0  0  0  0  0  0
   22.9090   13.3770   18.3230 F   0  0  0  0  0  0  0  0  0  0  0  0
   24.9730   12.2870   18.5370 C   0  0  0  0  0  0  0  0  0  0  0  0
   25.7400   11.3500   19.1980 C   0  0  0  0  0  0  0  0  0  0  0  0
   27.0040   11.1540   18.8230 F   0  0  0  0  0  0  0  0  0  0  0  0
   25.2290   10.6140   20.2540 C   0  0  0  0  0  0  0  0  0  0  0  0
   22.3440   10.2360   24.2000 C   0  0  3  0  0  0  0  0  0  0  0  0
   23.4430    9.7300   24.9580 O   0  0  0  0  0  0  0  0  0  0  0  0
   21.5240   11.1590   25.1000 C   0  0  0  0  0  0  0  0  0  0  0  0
   20.8890   10.3290   26.1790 N   0  3  0  0  0  0  0  0  0  0  0  0
   19.9480   11.0870   27.0610 C   0  0  0  0  0  0  0  0  0  0  0  0
   18.7410   11.6060   26.3230 C   0  0  0  0  0  0  0  0  0  0  0  0
   18.4400   12.9680   26.3220 C   0  0  0  0  0  0  0  0  0  0  0  0
   17.3720   13.4550   25.5770 C   0  0  0  0  0  0  0  0  0  0  0  0
   16.5950   12.5870   24.8200 C   0  0  0  0  0  0  0  0  0  0  0  0
   16.8590   11.2240   24.8370 C   0  0  0  0  0  0  0  0  0  0  0  0
   16.0840   10.4340   24.0350 O   0  0  0  0  0  0  0  0  0  0  0  0
   15.6630    9.2240   24.6520 C   0  0  0  0  0  0  0  0  0  0  0  0
   17.9240   10.7360   25.5910 C   0  0  0  0  0  0  0  0  0  0  0  0
   25.7150   17.1530   25.7870 C   0  0  0  0  0  0  0  0  0  0  0  0
   26.5770   17.2290   26.6580 O   0  0  0  0  0  0  0  0  0  0  0  0
   24.5790   18.1170   25.6700 C   0  0  0  0  0  0  0  0  0  0  0  0
   31.3780   10.2300   20.9550 H   0  0  0  0  0  0  0  0  0  0  0  0
   29.8810   10.3730   20.0210 H   0  0  0  0  0  0  0  0  0  0  0  0
   29.8170    9.9740   21.7490 H   0  0  0  0  0  0  0  0  0  0  0  0
   30.8590   12.6140   20.5890 H   0  0  0  0  0  0  0  0  0  0  0  0
   30.7750   12.2120   22.3000 H   0  0  0  0  0  0  0  0  0  0  0  0
   28.2840   11.8680   22.0480 H   0  0  0  0  0  0  0  0  0  0  0  0
   28.3920   12.4400   20.3820 H   0  0  0  0  0  0  0  0  0  0  0  0
   29.0900   15.8910   21.5560 H   0  0  0  0  0  0  0  0  0  0  0  0
   29.9130   14.8150   20.4340 H   0  0  0  0  0  0  0  0  0  0  0  0
   27.7490   14.3360   19.2860 H   0  0  0  0  0  0  0  0  0  0  0  0
   26.8850   15.3070   20.4730 H   0  0  0  0  0  0  0  0  0  0  0  0
   29.0670   16.3490   18.5900 H   0  0  0  0  0  0  0  0  0  0  0  0
   28.1820   17.3290   19.7770 H   0  0  0  0  0  0  0  0  0  0  0  0
   27.3240   16.6000   18.4120 H   0  0  0  0  0  0  0  0  0  0  0  0
   27.9270   16.1980   24.7140 H   0  0  0  0  0  0  0  0  0  0  0  0
   23.6690   15.5610   24.8920 H   0  0  0  0  0  0  0  0  0  0  0  0
   26.1630   12.9500   22.5510 H   0  0  0  0  0  0  0  0  0  0  0  0
   24.7850   11.5880   23.5680 H   0  0  0  0  0  0  0  0  0  0  0  0
   21.9850   11.5380   22.5390 H   0  0  0  0  0  0  0  0  0  0  0  0
   24.1660    9.4170   22.2710 H   0  0  0  0  0  0  0  0  0  0  0  0
   22.5800    9.3840   21.5150 H   0  0  0  0  0  0  0  0  0  0  0  0
   22.0960   11.9250   20.2660 H   0  0  0  0  0  0  0  0  0  0  0  0
   25.3850   12.8610   17.7150 H   0  0  0  0  0  0  0  0  0  0  0  0
   25.8770    9.8930   20.7450 H   0  0  0  0  0  0  0  0  0  0  0  0
   21.7240    9.3850   23.8910 H   0  0  0  0  0  0  0  0  0  0  0  0
   23.8940    9.0380   24.4400 H   0  0  0  0  0  0  0  0  0  0  0  0
   20.7250   11.6450   24.5350 H   0  0  0  0  0  0  0  0  0  0  0  0
   22.1430   11.9010   25.6140 H   0  0  0  0  0  0  0  0  0  0  0  0
   20.4070    9.5180   25.7750 H   0  0  0  0  0  0  0  0  0  0  0  0
   21.6630    9.9420   26.7400 H   0  0  0  0  0  0  0  0  0  0  0  0
   19.6340   10.3950   27.8490 H   0  0  0  0  0  0  0  0  0  0  0  0
   20.5280   11.8940   27.5240 H   0  0  0  0  0  0  0  0  0  0  0  0
   19.0460   13.6750   26.8860 H   0  0  0  0  0  0  0  0  0  0  0  0
   17.1500   14.5200   25.5710 H   0  0  0  0  0  0  0  0  0  0  0  0
   15.7760   12.9740   24.2200 H   0  0  0  0  0  0  0  0  0  0  0  0
   14.8030    8.8440   24.0920 H   0  0  0  0  0  0  0  0  0  0  0  0
   15.3440    9.3810   25.6890 H   0  0  0  0  0  0  0  0  0  0  0  0
   16.4530    8.4690   24.6000 H   0  0  0  0  0  0  0  0  0  0  0  0
   18.1360    9.6710   25.5800 H   0  0  0  0  0  0  0  0  0  0  0  0
   23.7820   17.8320   26.3610 H   0  0  0  0  0  0  0  0  0  0  0  0
   24.1900   18.1490   24.6490 H   0  0  0  0  0  0  0  0  0  0  0  0
   24.9370   19.1210   25.9170 H   0  0  0  0  0  0  0  0  0  0  0  0
  1  2  1  0  0  0  0
  1 45  1  0  0  0  0
  1 46  1  0  0  0  0
  1 47  1  0  0  0  0
  2  3  1  0  0  0  0
  2 48  1  0  0  0  0
  2 49  1  0  0  0  0
  3  4  1  0  0  0  0
  3 50  1  0  0  0  0
  3 51  1  0  0  0  0
  4  5  1  0  0  0  0
  4  8  1  0  0  0  0
  5  6  1  0  0  0  0
  5 52  1  0  0  0  0
  5 53  1  0  0  0  0
  6  7  1  0  0  0  0
  6 54  1  0  0  0  0
  6 55  1  0  0  0  0
  7 56  1  0  0  0  0
  7 57  1  0  0  0  0
  7 58  1  0  0  0  0
  8  9  2  0  0  0  0
  8 10  1  0  0  0  0
 10 11  1  0  0  0  0
 10 15  2  0  0  0  0
 11 12  2  0  0  0  0
 11 59  1  0  0  0  0
 12 13  1  0  0  0  0
 12 42  1  0  0  0  0
 13 14  2  0  0  0  0
 13 60  1  0  0  0  0
 14 15  1  0  0  0  0
 14 16  1  0  0  0  0
 15 61  1  0  0  0  0
 16 17  2  0  0  0  0
 16 18  1  0  0  0  0
 18 19  1  0  0  0  0
 18 62  1  0  0  0  0
 19 20  1  0  0  0  0
 19 29  1  0  0  0  0
 19 63  1  0  0  0  0
 20 21  1  0  0  0  0
 20 64  1  0  0  0  0
 20 65  1  0  0  0  0
 21 22  1  0  0  0  0
 21 28  2  0  0  0  0
 22 23  2  0  0  0  0
 22 66  1  0  0  0  0
 23 24  1  0  0  0  0
 23 25  1  0  0  0  0
 25 26  2  0  0  0  0
 25 67  1  0  0  0  0
 26 27  1  0  0  0  0
 26 28  1  0  0  0  0
 28 68  1  0  0  0  0
 29 30  1  0  0  0  0
 29 31  1  0  0  0  0
 29 69  1  0  0  0  0
 30 70  1  0  0  0  0
 31 32  1  0  0  0  0
 31 71  1  0  0  0  0
 31 72  1  0  0  0  0
 32 33  1  0  0  0  0
 32 73  1  0  0  0  0
 32 74  1  0  0  0  0
 33 34  1  0  0  0  0
 33 75  1  0  0  0  0
 33 76  1  0  0  0  0
 34 35  1  0  0  0  0
 34 41  2  0  0  0  0
 35 36  2  0  0  0  0
 35 77  1  0  0  0  0
 36 37  1  0  0  0  0
 36 78  1  0  0  0  0
 37 38  2  0  0  0  0
 37 79  1  0  0  0  0
 38 39  1  0  0  0  0
 38 41  1  0  0  0  0
 39 40  1  0  0  0  0
 40 80  1  0  0  0  0
 40 81  1  0  0  0  0
 40 82  1  0  0  0  0
 41 83  1  0  0  0  0
 42 43  2  0  0  0  0
 42 44  1  0  0  0  0
 44 84  1  0  0  0  0
 44 85  1  0  0  0  0
 44 86  1  0  0  0  0
M  CHG  1  32   1
M  END
>  <PARENT_CMPD_ID>
CHEMBL538636

>  <STANDARD_TYPE>
IC50

>  <RELATION>
=

>  <STANDARD_VALUE>
4

>  <STANDARD_UNITS>
nM

>  <COMPOUND_KEY>
1d

>  <PUBMED_ID>
19375914

>  <JOURNAL>
Bioorg. Med. Chem. Lett.

>  <YEAR>
2009

>  <VOLUME>
19

>  <FIRST_PAGE>
2654

>  <Company>
BMS

>  <idx>
322

>  <Model>
Valid

>  <target>
8.3979397

>  <des_pred_mlr>
7.33325

>  <RF_Canvas>
7.9037509

>  <DNN_Canvas>
7.2554646

>  <pred_CoMFA>
7.1738

>  <pred_COMSIA>
8.5136995

>  <pred_abm5>
7.3086524

>  <pred_ff8>
7.0578561

>  <pred_gau6>
7.6296387

>  <CID>
BACE_322

>  <active>
1

>  <des_class_bayes>
1

>  <maacs_class_bayes>
1

>  <radial_class_bayes>
1

>  <dend_class_bayes>
1

>  <molprint_class_bayes>
0

>  <RF_canvas>
1

>  <DNN_canvas>
1

$$$$
CHEMBL1210434
  MOE2015           3D

 89 93  0  0  1  0  0  0  0  0999 V2000
   20.2640   11.1570   26.8570 C   0  0  0  0  0  0  0  0  0  0  0  0
   21.2670   10.3660   26.1000 N   0  3  0  0  0  0  0  0  0  0  0  0
   21.8970   11.1270   25.0050 C   0  0  0  0  0  0  0  0  0  0  0  0
   22.4530   10.1390   23.9780 C   0  0  3  0  0  0  0  0  0  0  0  0
   21.3320    9.3440   23.5740 O   0  0  0  0  0  0  0  0  0  0  0  0
   23.1060   10.8440   22.7960 C   0  0  3  0  0  0  0  0  0  0  0  0
   23.4280    9.8950   21.6440 C   0  0  0  0  0  0  0  0  0  0  0  0
   24.3110   10.5370   20.6000 C   0  0  0  0  0  0  0  0  0  0  0  0
   23.9700   11.7390   19.9960 C   0  0  0  0  0  0  0  0  0  0  0  0
   24.8050   12.3030   19.0450 C   0  0  0  0  0  0  0  0  0  0  0  0
   25.9840   11.6730   18.6870 C   0  0  0  0  0  0  0  0  0  0  0  0
   26.3250   10.4770   19.2830 C   0  0  0  0  0  0  0  0  0  0  0  0
   25.4930    9.9130   20.2330 C   0  0  0  0  0  0  0  0  0  0  0  0
   24.3240   11.5430   23.2230 N   0  0  0  0  0  0  0  0  0  0  0  0
   24.3340   12.9010   23.3860 C   0  0  0  0  0  0  0  0  0  0  0  0
   23.3260   13.6080   23.3880 O   0  0  0  0  0  0  0  0  0  0  0  0
   25.6870   13.4610   23.5640 C   0  0  0  0  0  0  0  0  0  0  0  0
   26.7520   12.9530   22.8410 C   0  0  0  0  0  0  0  0  0  0  0  0
   28.0260   13.4740   23.0230 C   0  0  0  0  0  0  0  0  0  0  0  0
   28.2310   14.5110   23.9240 C   0  0  0  0  0  0  0  0  0  0  0  0
   27.1480   15.0100   24.6360 C   0  0  0  0  0  0  0  0  0  0  0  0
   25.8780   14.4890   24.4640 C   0  0  0  0  0  0  0  0  0  0  0  0
   27.2970   16.0860   25.5750 N   0  0  0  0  0  0  0  0  0  0  0  0
   26.4820   17.2510   25.3990 C   0  0  0  0  0  0  0  0  0  0  0  0
   26.6630   18.0220   24.2710 C   0  0  0  0  0  0  0  0  0  0  0  0
   25.8640   19.1370   24.1070 C   0  0  0  0  0  0  0  0  0  0  0  0
   24.9250   19.4590   25.0620 C   0  0  0  0  0  0  0  0  0  0  0  0
   24.7560   18.6790   26.1830 C   0  0  0  0  0  0  0  0  0  0  0  0
   25.5390   17.5590   26.3600 C   0  0  0  0  0  0  0  0  0  0  0  0
   28.6320   16.2090   26.6040 S   0  0  0  0  0  0  0  0  0  0  0  0
   29.7320   17.2750   25.7120 C   0  0  0  0  0  0  0  0  0  0  0  0
   29.2570   14.9140   26.6820 O   0  0  0  0  0  0  0  0  0  0  0  0
   28.2360   16.9430   27.7840 O   0  0  0  0  0  0  0  0  0  0  0  0
   19.7950   10.5010   27.5910 H   0  0  0  0  0  0  0  0  0  0  0  0
   20.7560   11.9990   27.3440 H   0  0  0  0  0  0  0  0  0  0  0  0
   20.8080    9.5570   25.7070 H   0  0  0  0  0  0  0  0  0  0  0  0
   21.9890   10.0660   26.7400 H   0  0  0  0  0  0  0  0  0  0  0  0
   22.7070   11.7380   25.4020 H   0  0  0  0  0  0  0  0  0  0  0  0
   21.1550   11.7700   24.5310 H   0  0  0  0  0  0  0  0  0  0  0  0
   23.2470    9.5260   24.4060 H   0  0  0  0  0  0  0  0  0  0  0  0
   20.6720    9.9370   23.2080 H   0  0  0  0  0  0  0  0  0  0  0  0
   22.3790   11.5660   22.4250 H   0  0  0  0  0  0  0  0  0  0  0  0
   22.4950    9.5870   21.1720 H   0  0  0  0  0  0  0  0  0  0  0  0
   23.9390    9.0190   22.0440 H   0  0  0  0  0  0  0  0  0  0  0  0
   23.0510   12.2360   20.2680 H   0  0  0  0  0  0  0  0  0  0  0  0
   24.5340   13.2400   18.5800 H   0  0  0  0  0  0  0  0  0  0  0  0
   26.6330   12.1150   17.9460 H   0  0  0  0  0  0  0  0  0  0  0  0
   27.2430    9.9800   19.0070 H   0  0  0  0  0  0  0  0  0  0  0  0
   25.7670    8.9760   20.6940 H   0  0  0  0  0  0  0  0  0  0  0  0
   25.1660   11.0140   23.3990 H   0  0  0  0  0  0  0  0  0  0  0  0
   26.5920   12.1510   22.1350 H   0  0  0  0  0  0  0  0  0  0  0  0
   29.2190   14.9230   24.0690 H   0  0  0  0  0  0  0  0  0  0  0  0
   25.0450   14.8830   25.0280 H   0  0  0  0  0  0  0  0  0  0  0  0
   27.4090   17.7620   23.5350 H   0  0  0  0  0  0  0  0  0  0  0  0
   25.9760   19.7570   23.2290 H   0  0  0  0  0  0  0  0  0  0  0  0
   24.3120   20.3380   24.9290 H   0  0  0  0  0  0  0  0  0  0  0  0
   24.0130   18.9430   26.9210 H   0  0  0  0  0  0  0  0  0  0  0  0
   25.4180   16.9340   27.2330 H   0  0  0  0  0  0  0  0  0  0  0  0
   30.0680   16.7730   24.8040 H   0  0  0  0  0  0  0  0  0  0  0  0
   30.5940   17.5120   26.3360 H   0  0  0  0  0  0  0  0  0  0  0  0
   29.2110   18.1950   25.4470 H   0  0  0  0  0  0  0  0  0  0  0  0
   31.0970   14.3590   21.9790 C   0  0  0  0  0  0  0  0  0  0  0  0
   32.0750   14.1710   21.5220 H   0  0  0  0  0  0  0  0  0  0  0  0
   31.2240   15.1860   22.6850 H   0  0  0  0  0  0  0  0  0  0  0  0
   30.5890   13.0960   22.6780 C   0  0  0  0  0  0  0  0  0  0  0  0
   30.6860   13.1500   23.7670 H   0  0  0  0  0  0  0  0  0  0  0  0
   31.2110   12.2520   22.3510 H   0  0  0  0  0  0  0  0  0  0  0  0
   29.1520   12.8730   22.1860 C   0  0  0  0  0  0  0  0  0  0  0  0
   28.9720   11.7910   22.1330 H   0  0  0  0  0  0  0  0  0  0  0  0
   29.1910   13.4700   20.7750 C   0  0  0  0  0  0  0  0  0  0  0  0
   28.2050   13.7060   20.3610 H   0  0  0  0  0  0  0  0  0  0  0  0
   29.6810   12.7650   20.0910 H   0  0  0  0  0  0  0  0  0  0  0  0
   30.0590   14.7130   20.9180 C   0  0  0  0  0  0  0  0  0  0  0  0
   29.4530   15.5610   21.2580 H   0  0  0  0  0  0  0  0  0  0  0  0
   30.5220   15.0010   19.9690 H   0  0  0  0  0  0  0  0  0  0  0  0
   17.3570   12.6670   24.3100 C   0  0  0  0  0  0  0  0  0  0  0  0
   16.5950   13.0610   23.6420 H   0  0  0  0  0  0  0  0  0  0  0  0
   17.4060   11.2990   24.5790 C   0  0  0  0  0  0  0  0  0  0  0  0
   16.6820   10.6280   24.1210 H   0  0  0  0  0  0  0  0  0  0  0  0
   18.3830   10.7910   25.4350 C   0  0  0  0  0  0  0  0  0  0  0  0
   18.4210    9.7260   25.6450 H   0  0  0  0  0  0  0  0  0  0  0  0
   19.3110   11.6520   26.0220 C   0  0  0  0  0  0  0  0  0  0  0  0
   19.2620   13.0190   25.7530 C   0  0  0  0  0  0  0  0  0  0  0  0
   19.9850   13.6900   26.2100 H   0  0  0  0  0  0  0  0  0  0  0  0
   18.2850   13.5270   24.8960 C   0  0  0  0  0  0  0  0  0  0  0  0
   18.2320   14.9840   24.6090 C   0  0  0  0  0  0  0  0  0  0  0  0
   17.2050   15.2410   23.7560 F   0  0  0  0  0  0  0  0  0  0  0  0
   19.4030   15.3770   24.0400 F   0  0  0  0  0  0  0  0  0  0  0  0
   18.0400   15.6680   25.7690 F   0  0  0  0  0  0  0  0  0  0  0  0
  1  2  1  0  0  0  0
  1 34  1  0  0  0  0
  1 35  1  0  0  0  0
  1 82  1  0  0  0  0
  2  3  1  0  0  0  0
  2 36  1  0  0  0  0
  2 37  1  0  0  0  0
  3  4  1  0  0  0  0
  3 38  1  0  0  0  0
  3 39  1  0  0  0  0
  4  5  1  0  0  0  0
  4  6  1  0  0  0  0
  4 40  1  0  0  0  0
  5 41  1  0  0  0  0
  6  7  1  0  0  0  0
  6 14  1  0  0  0  0
  6 42  1  0  0  0  0
  7  8  1  0  0  0  0
  7 43  1  0  0  0  0
  7 44  1  0  0  0  0
  8  9  1  0  0  0  0
  8 13  2  0  0  0  0
  9 10  2  0  0  0  0
  9 45  1  0  0  0  0
 10 11  1  0  0  0  0
 10 46  1  0  0  0  0
 11 12  2  0  0  0  0
 11 47  1  0  0  0  0
 12 13  1  0  0  0  0
 12 48  1  0  0  0  0
 13 49  1  0  0  0  0
 14 15  1  0  0  0  0
 14 50  1  0  0  0  0
 15 16  2  0  0  0  0
 15 17  1  0  0  0  0
 17 18  1  0  0  0  0
 17 22  2  0  0  0  0
 18 19  2  0  0  0  0
 18 51  1  0  0  0  0
 19 20  1  0  0  0  0
 19 68  1  0  0  0  0
 20 21  2  0  0  0  0
 20 52  1  0  0  0  0
 21 22  1  0  0  0  0
 21 23  1  0  0  0  0
 22 53  1  0  0  0  0
 23 24  1  0  0  0  0
 23 30  1  0  0  0  0
 24 25  1  0  0  0  0
 24 29  2  0  0  0  0
 25 26  2  0  0  0  0
 25 54  1  0  0  0  0
 26 27  1  0  0  0  0
 26 55  1  0  0  0  0
 27 28  2  0  0  0  0
 27 56  1  0  0  0  0
 28 29  1  0  0  0  0
 28 57  1  0  0  0  0
 29 58  1  0  0  0  0
 30 31  1  0  0  0  0
 30 32  2  0  0  0  0
 30 33  2  0  0  0  0
 31 59  1  0  0  0  0
 31 60  1  0  0  0  0
 31 61  1  0  0  0  0
 62 63  1  0  0  0  0
 62 64  1  0  0  0  0
 62 65  1  0  0  0  0
 62 73  1  0  0  0  0
 65 66  1  0  0  0  0
 65 67  1  0  0  0  0
 65 68  1  0  0  0  0
 68 69  1  0  0  0  0
 68 70  1  0  0  0  0
 70 71  1  0  0  0  0
 70 72  1  0  0  0  0
 70 73  1  0  0  0  0
 73 74  1  0  0  0  0
 73 75  1  0  0  0  0
 76 77  1  0  0  0  0
 76 78  1  0  0  0  0
 76 85  2  0  0  0  0
 78 79  1  0  0  0  0
 78 80  2  0  0  0  0
 80 81  1  0  0  0  0
 80 82  1  0  0  0  0
 82 83  2  0  0  0  0
 83 84  1  0  0  0  0
 83 85  1  0  0  0  0
 85 86  1  0  0  0  0
 86 87  1  0  0  0  0
 86 88  1  0  0  0  0
 86 89  1  0  0  0  0
M  CHG  1   2   1
M  END
>  <PARENT_CMPD_ID>
CHEMBL1210434

>  <STANDARD_TYPE>
IC50

>  <RELATION>
=

>  <STANDARD_VALUE>
4

>  <STANDARD_UNITS>
nM

>  <COMPOUND_KEY>
50

>  <PUBMED_ID>
20579874

>  <JOURNAL>
Bioorg. Med. Chem. Lett.

>  <YEAR>
2010

>  <VOLUME>
20

>  <FIRST_PAGE>
4639

>  <Company>
GSK

>  <idx>
323

>  <Model>
Valid

>  <target>
8.3979397

>  <des_pred_mlr>
8.0826998

>  <RF_Canvas>
7.8608546

>  <DNN_Canvas>
7.9966755

>  <pred_CoMFA>
6.8948002

>  <pred_COMSIA>
8.1611996

>  <pred_abm5>
7.352757

>  <pred_ff8>
8.0528555

>  <pred_gau6>
7.797152

>  <CID>
BACE_323

>  <active>
1

>  <des_class_bayes>
1

>  <maacs_class_bayes>
1

>  <radial_class_bayes>
1

>  <dend_class_bayes>
1

>  <molprint_class_bayes>
1

>  <RF_canvas>
1

>  <DNN_canvas>
1

$$$$
22380629_60q
  MOE2015           3D
HYDROLASE/HYDROLASE INHIBITOR
 83 85  0  0  1  0  0  0  0  0999 V2000
   29.9880   10.2180   19.6730 F   0  0  0  0  0  0  0  0  0  0  0  0
   29.2550   10.2350   20.7980 C   0  0  0  0  0  0  0  0  0  0  0  0
   28.4700    9.1430   20.7960 F   0  0  0  0  0  0  0  0  0  0  0  0
   30.1040   10.1070   21.8340 F   0  0  0  0  0  0  0  0  0  0  0  0
   28.4310   11.5000   20.9130 C   0  0  2  0  0  0  0  0  0  0  0  0
   27.8590   11.5020   21.8470 H   0  0  0  0  0  0  0  0  0  0  0  0
   27.5890   11.5870   19.7520 O   0  0  0  0  0  0  0  0  0  0  0  0
   26.2310   11.5030   19.9260 C   0  0  0  0  0  0  0  0  0  0  0  0
   25.4580   12.2290   19.0120 C   0  0  0  0  0  0  0  0  0  0  0  0
   24.0720   12.1860   19.1410 C   0  0  0  0  0  0  0  0  0  0  0  0
   23.4500   11.4370   20.1320 C   0  0  0  0  0  0  0  0  0  0  0  0
   22.3660   11.4470   20.1890 H   0  0  0  0  0  0  0  0  0  0  0  0
   24.2140   10.6960   21.0300 C   0  0  0  0  0  0  0  0  0  0  0  0
   25.6080   10.7190   20.9030 C   0  0  0  0  0  0  0  0  0  0  0  0
   26.2030   10.1100   21.5770 H   0  0  0  0  0  0  0  0  0  0  0  0
   23.5610    9.9330   22.1580 C   0  0  0  0  0  0  0  0  0  0  0  0
   24.2930    9.2690   22.6360 H   0  0  0  0  0  0  0  0  0  0  0  0
   22.7960    9.2760   21.7270 H   0  0  0  0  0  0  0  0  0  0  0  0
   22.9340   10.8590   23.2180 C   0  0  3  0  0  0  0  0  0  0  0  0
   22.1520   11.4390   22.7080 H   0  0  0  0  0  0  0  0  0  0  0  0
   22.2420   10.0760   24.3640 C   0  0  3  0  0  0  0  0  0  0  0  0
   22.9810    9.4550   24.8840 H   0  0  0  0  0  0  0  0  0  0  0  0
   21.5320   11.0080   25.3780 C   0  0  3  0  0  0  0  0  0  0  0  0
   20.7230   11.5240   24.8490 H   0  0  0  0  0  0  0  0  0  0  0  0
   22.4590   11.9960   26.0540 C   0  0  0  0  0  0  0  0  0  0  0  0
   23.2610   11.4960   26.6070 H   0  0  0  0  0  0  0  0  0  0  0  0
   21.9250   12.6590   26.7410 H   0  0  0  0  0  0  0  0  0  0  0  0
   23.2100   13.0340   24.8310 S   0  0  0  0  0  0  0  0  0  0  0  0
   23.9760   11.8250   23.7870 C   0  0  0  0  0  0  0  0  0  0  0  0
   24.4810   12.4050   23.0090 H   0  0  0  0  0  0  0  0  0  0  0  0
   24.7380   11.3040   24.3750 H   0  0  0  0  0  0  0  0  0  0  0  0
   24.2430   13.8170   25.4690 O   0  0  0  0  0  0  0  0  0  0  0  0
   22.1620   13.6700   24.0640 O   0  0  0  0  0  0  0  0  0  0  0  0
   20.8600   10.1190   26.4090 N   0  3  0  0  0  0  0  0  0  0  0  0
   21.5550    9.6380   26.9960 H   0  0  0  0  0  0  0  0  0  0  0  0
   20.4210    9.3640   25.8530 H   0  0  0  0  0  0  0  0  0  0  0  0
   19.8180   10.7460   27.2820 C   0  0  0  0  0  0  0  0  0  0  0  0
   20.3390   11.4300   27.9600 H   0  0  0  0  0  0  0  0  0  0  0  0
   19.4070    9.9360   27.8960 H   0  0  0  0  0  0  0  0  0  0  0  0
   18.7140   11.4330   26.5350 C   0  0  0  0  0  0  0  0  0  0  0  0
   17.7990   10.6900   25.7800 C   0  0  0  0  0  0  0  0  0  0  0  0
   17.8880    9.6050   25.7720 H   0  0  0  0  0  0  0  0  0  0  0  0
   16.7790   11.2980   25.0340 C   0  0  0  0  0  0  0  0  0  0  0  0
   16.7130   12.6920   25.0660 C   0  0  0  0  0  0  0  0  0  0  0  0
   15.9570   13.2370   24.5070 H   0  0  0  0  0  0  0  0  0  0  0  0
   17.6100   13.4430   25.8170 C   0  0  0  0  0  0  0  0  0  0  0  0
   17.5310   14.5280   25.8230 H   0  0  0  0  0  0  0  0  0  0  0  0
   18.6050   12.8190   26.5500 C   0  0  0  0  0  0  0  0  0  0  0  0
   19.2940   13.4330   27.1250 H   0  0  0  0  0  0  0  0  0  0  0  0
   15.8110   10.4430   24.2150 C   0  0  0  0  0  0  0  0  0  0  0  0
   15.1570    9.3770   25.1060 C   0  0  0  0  0  0  0  0  0  0  0  0
   14.6410    9.8360   25.9590 H   0  0  0  0  0  0  0  0  0  0  0  0
   15.8810    8.6610   25.5090 H   0  0  0  0  0  0  0  0  0  0  0  0
   14.4170    8.7910   24.5490 H   0  0  0  0  0  0  0  0  0  0  0  0
   14.6690   11.2400   23.5670 C   0  0  0  0  0  0  0  0  0  0  0  0
   14.0680   11.7690   24.3170 H   0  0  0  0  0  0  0  0  0  0  0  0
   13.9860   10.5820   23.0140 H   0  0  0  0  0  0  0  0  0  0  0  0
   15.0430   11.9790   22.8490 H   0  0  0  0  0  0  0  0  0  0  0  0
   16.5820    9.7490   23.0850 C   0  0  0  0  0  0  0  0  0  0  0  0
   17.3620    9.0800   23.4660 H   0  0  0  0  0  0  0  0  0  0  0  0
   17.0720   10.4800   22.4300 H   0  0  0  0  0  0  0  0  0  0  0  0
   15.9150    9.1410   22.4610 H   0  0  0  0  0  0  0  0  0  0  0  0
   21.2320    9.1950   23.8630 O   0  0  0  0  0  0  0  0  0  0  0  0
   20.7220    9.6390   23.1590 H   0  0  0  0  0  0  0  0  0  0  0  0
   23.3120   12.8880   18.2940 F   0  0  0  0  0  0  0  0  0  0  0  0
   26.0590   12.9760   18.0070 N   0  0  0  0  0  0  0  0  0  0  0  0
   25.4940   13.5260   17.3730 H   0  0  0  0  0  0  0  0  0  0  0  0
   27.0660   12.9490   17.9110 H   0  0  0  0  0  0  0  0  0  0  0  0
   29.3710   12.7080   20.9260 C   0  0  0  0  0  0  0  0  0  0  0  0
   29.7680   12.9290   19.9280 H   0  0  0  0  0  0  0  0  0  0  0  0
   30.2210   12.5160   21.5890 H   0  0  0  0  0  0  0  0  0  0  0  0
   28.7070   13.8460   21.4780 O   0  0  0  0  0  0  0  0  0  0  0  0
   28.2310   14.7570   20.4890 C   0  0  0  0  0  0  0  0  0  0  0  0
   27.5340   14.2410   19.8300 H   0  0  0  0  0  0  0  0  0  0  0  0
   29.0790   15.1340   19.9070 H   0  0  0  0  0  0  0  0  0  0  0  0
   27.5080   15.8980   21.1840 C   0  0  0  0  0  0  0  0  0  0  0  0
   26.8630   15.5120   21.9820 H   0  0  0  0  0  0  0  0  0  0  0  0
   26.9030   16.4540   20.4590 H   0  0  0  0  0  0  0  0  0  0  0  0
   28.4800   16.7900   21.7340 O   0  0  0  0  0  0  0  0  0  0  0  0
   27.8780   17.7700   22.5660 C   0  0  0  0  0  0  0  0  0  0  0  0
   28.6610   18.4380   22.9340 H   0  0  0  0  0  0  0  0  0  0  0  0
   27.3920   17.2970   23.4250 H   0  0  0  0  0  0  0  0  0  0  0  0
   27.1520   18.3610   22.0000 H   0  0  0  0  0  0  0  0  0  0  0  0
  1  2  1  0  0  0  0
  2  3  1  0  0  0  0
  2  4  1  0  0  0  0
  2  5  1  0  0  0  0
  5  6  1  0  0  0  0
  5  7  1  0  0  0  0
  5 69  1  0  0  0  0
  7  8  1  0  0  0  0
  8  9  2  0  0  0  0
  8 14  1  0  0  0  0
  9 10  1  0  0  0  0
  9 66  1  0  0  0  0
 10 11  2  0  0  0  0
 10 65  1  0  0  0  0
 11 12  1  0  0  0  0
 11 13  1  0  0  0  0
 13 14  2  0  0  0  0
 13 16  1  0  0  0  0
 14 15  1  0  0  0  0
 16 17  1  0  0  0  0
 16 18  1  0  0  0  0
 16 19  1  0  0  0  0
 19 20  1  0  0  0  0
 19 21  1  0  0  0  0
 19 29  1  0  0  0  0
 21 22  1  0  0  0  0
 21 23  1  0  0  0  0
 21 63  1  0  0  0  0
 23 24  1  0  0  0  0
 23 25  1  0  0  0  0
 23 34  1  0  0  0  0
 25 26  1  0  0  0  0
 25 27  1  0  0  0  0
 25 28  1  0  0  0  0
 28 29  1  0  0  0  0
 28 32  2  0  0  0  0
 28 33  2  0  0  0  0
 29 30  1  0  0  0  0
 29 31  1  0  0  0  0
 34 35  1  0  0  0  0
 34 36  1  0  0  0  0
 34 37  1  0  0  0  0
 37 38  1  0  0  0  0
 37 39  1  0  0  0  0
 37 40  1  0  0  0  0
 40 41  2  0  0  0  0
 40 48  1  0  0  0  0
 41 42  1  0  0  0  0
 41 43  1  0  0  0  0
 43 44  2  0  0  0  0
 43 50  1  0  0  0  0
 44 45  1  0  0  0  0
 44 46  1  0  0  0  0
 46 47  1  0  0  0  0
 46 48  2  0  0  0  0
 48 49  1  0  0  0  0
 50 51  1  0  0  0  0
 50 55  1  0  0  0  0
 50 59  1  0  0  0  0
 51 52  1  0  0  0  0
 51 53  1  0  0  0  0
 51 54  1  0  0  0  0
 55 56  1  0  0  0  0
 55 57  1  0  0  0  0
 55 58  1  0  0  0  0
 59 60  1  0  0  0  0
 59 61  1  0  0  0  0
 59 62  1  0  0  0  0
 63 64  1  0  0  0  0
 66 67  1  0  0  0  0
 66 68  1  0  0  0  0
 69 70  1  0  0  0  0
 69 71  1  0  0  0  0
 69 72  1  0  0  0  0
 72 73  1  0  0  0  0
 73 74  1  0  0  0  0
 73 75  1  0  0  0  0
 73 76  1  0  0  0  0
 76 77  1  0  0  0  0
 76 78  1  0  0  0  0
 76 79  1  0  0  0  0
 79 80  1  0  0  0  0
 80 81  1  0  0  0  0
 80 82  1  0  0  0  0
 80 83  1  0  0  0  0
M  CHG  1  34   1
M  END
>  <PARENT_CMPD_ID>
22380629_60q

>  <STANDARD_TYPE>
IC50

>  <RELATION>
=

>  <STANDARD_VALUE>
4

>  <STANDARD_UNITS>
nM

>  <COMPOUND_KEY>
60q

>  <PUBMED_ID>
22380629

>  <JOURNAL>
J.Med.Chem.

>  <YEAR>
2012

>  <VOLUME>
55

>  <FIRST_PAGE>
3364

>  <Company>
Novartis

>  <idx>
324

>  <Model>
Valid

>  <target>
8.3979397

>  <des_pred_mlr>
7.4955001

>  <RF_Canvas>
8.0983257

>  <DNN_Canvas>
7.9255385

>  <pred_CoMFA>
8.5258999

>  <pred_COMSIA>
8.0389004

>  <pred_abm5>
8.1625242

>  <pred_ff8>
7.8241282

>  <pred_gau6>
8.1875257

>  <CID>
BACE_324

>  <active>
1

>  <des_class_bayes>
1

>  <maacs_class_bayes>
1

>  <radial_class_bayes>
1

>  <dend_class_bayes>
1

>  <molprint_class_bayes>
1

>  <RF_canvas>
1

>  <DNN_canvas>
1

$$$$
22468684_15
  MOE2015           3D

 84 88  0  0  1  0  0  0  0  0999 V2000
   20.7540   13.9040   29.6240 C   0  0  0  0  0  0  0  0  0  0  0  0
   20.1180   13.0250   30.6970 C   0  0  0  0  0  0  0  0  0  0  0  0
   19.1110   12.5520   29.6520 C   0  0  0  0  0  0  0  0  0  0  0  0
   20.0880   13.0170   28.5460 C   0  0  0  0  0  0  0  0  0  0  0  0
   21.0210   11.9730   27.9570 C   0  0  0  0  0  0  0  0  0  0  0  0
   19.4970   13.7800   27.4820 O   0  0  0  0  0  0  0  0  0  0  0  0
   18.8620   13.0730   26.4980 C   0  0  0  0  0  0  0  0  0  0  0  0
   17.9680   13.7880   25.8000 N   0  0  0  0  0  0  0  0  0  0  0  0
   17.3270   13.1510   24.8060 C   0  0  0  0  0  0  0  0  0  0  0  0
   17.5140   11.8150   24.4870 C   0  0  0  0  0  0  0  0  0  0  0  0
   16.7180   11.1690   23.3940 C   0  0  0  0  0  0  0  0  0  0  0  0
   15.3870   10.5170   23.8210 C   0  0  0  0  0  0  0  0  0  0  0  0
   14.4840   11.4930   24.5760 C   0  0  0  0  0  0  0  0  0  0  0  0
   15.6290    9.2830   24.6910 C   0  0  0  0  0  0  0  0  0  0  0  0
   14.6520   10.0730   22.5520 C   0  0  0  0  0  0  0  0  0  0  0  0
   18.4510   11.1090   25.2320 C   0  0  0  0  0  0  0  0  0  0  0  0
   19.1710   11.7450   26.2440 C   0  0  0  0  0  0  0  0  0  0  0  0
   20.2250   11.0360   27.0430 C   0  0  3  0  0  0  0  0  0  0  0  0
   21.2030   10.2370   26.2120 N   0  3  0  0  0  0  0  0  0  0  0  0
   21.9290   10.9960   25.1320 C   0  0  0  0  0  0  0  0  0  0  0  0
   22.3650   10.0150   24.0480 C   0  0  3  0  0  0  0  0  0  0  0  0
   21.2190    9.2450   23.6610 O   0  0  0  0  0  0  0  0  0  0  0  0
   22.9910   10.7280   22.8290 C   0  0  3  0  0  0  0  0  0  0  0  0
   24.0120   11.6820   23.2440 N   0  0  0  0  0  0  0  0  0  0  0  0
   23.7640   13.0360   23.3270 C   0  0  0  0  0  0  0  0  0  0  0  0
   22.6700   13.5360   23.0910 O   0  0  0  0  0  0  0  0  0  0  0  0
   24.9380   13.8470   23.8480 C   0  0  0  0  0  0  0  0  0  0  0  0
   26.1830   13.3130   23.4310 O   0  0  0  0  0  0  0  0  0  0  0  0
   26.6000   13.8460   22.1820 C   0  0  0  0  0  0  0  0  0  0  0  0
   23.5240    9.6860   21.8240 C   0  0  0  0  0  0  0  0  0  0  0  0
   24.3480   10.2830   20.7210 C   0  0  0  0  0  0  0  0  0  0  0  0
   25.7350   10.3230   20.8610 C   0  0  0  0  0  0  0  0  0  0  0  0
   23.7650   10.8430   19.5930 C   0  0  0  0  0  0  0  0  0  0  0  0
   24.5630   11.4360   18.6240 C   0  0  0  0  0  0  0  0  0  0  0  0
   25.9440   11.4850   18.7840 C   0  0  0  0  0  0  0  0  0  0  0  0
   26.5510   10.9270   19.9070 C   0  0  0  0  0  0  0  0  0  0  0  0
   28.0000   11.0470   20.1000 C   0  0  0  0  0  0  0  0  0  0  0  0
   28.7260   12.0470   19.6440 N   0  0  0  0  0  0  0  0  0  0  0  0
   30.0380   11.8920   20.0300 C   0  0  0  0  0  0  0  0  0  0  0  0
   30.3120   10.7720   20.7770 C   0  0  0  0  0  0  0  0  0  0  0  0
   28.8870    9.8690   20.9920 S   0  0  0  0  0  0  0  0  0  0  0  0
   21.8480   13.9260   29.6320 H   0  0  0  0  0  0  0  0  0  0  0  0
   20.3910   14.9390   29.6340 H   0  0  0  0  0  0  0  0  0  0  0  0
   19.6970   13.5550   31.5550 H   0  0  0  0  0  0  0  0  0  0  0  0
   20.7780   12.2300   31.0630 H   0  0  0  0  0  0  0  0  0  0  0  0
   18.1660   13.1080   29.6710 H   0  0  0  0  0  0  0  0  0  0  0  0
   18.8810   11.4830   29.6870 H   0  0  0  0  0  0  0  0  0  0  0  0
   21.5260   11.3880   28.7370 H   0  0  0  0  0  0  0  0  0  0  0  0
   21.8110   12.4920   27.4010 H   0  0  0  0  0  0  0  0  0  0  0  0
   16.6160   13.7670   24.2620 H   0  0  0  0  0  0  0  0  0  0  0  0
   17.3530   10.4260   22.8910 H   0  0  0  0  0  0  0  0  0  0  0  0
   16.5230   11.9300   22.6240 H   0  0  0  0  0  0  0  0  0  0  0  0
   14.9000   11.7690   25.5510 H   0  0  0  0  0  0  0  0  0  0  0  0
   13.4990   11.0510   24.7670 H   0  0  0  0  0  0  0  0  0  0  0  0
   14.3230   12.4120   24.0010 H   0  0  0  0  0  0  0  0  0  0  0  0
   16.0670    9.5450   25.6600 H   0  0  0  0  0  0  0  0  0  0  0  0
   16.3030    8.5730   24.1990 H   0  0  0  0  0  0  0  0  0  0  0  0
   14.6910    8.7550   24.8990 H   0  0  0  0  0  0  0  0  0  0  0  0
   14.4300   10.9260   21.9000 H   0  0  0  0  0  0  0  0  0  0  0  0
   13.7000    9.5840   22.7890 H   0  0  0  0  0  0  0  0  0  0  0  0
   15.2520    9.3610   21.9730 H   0  0  0  0  0  0  0  0  0  0  0  0
   18.6130   10.0560   25.0090 H   0  0  0  0  0  0  0  0  0  0  0  0
   19.7150   10.2910   27.6670 H   0  0  0  0  0  0  0  0  0  0  0  0
   20.6970    9.4830   25.7150 H   0  0  0  0  0  0  0  0  0  0  0  0
   21.8750    9.7490   26.8190 H   0  0  0  0  0  0  0  0  0  0  0  0
   22.7760   11.4960   25.6090 H   0  0  0  0  0  0  0  0  0  0  0  0
   21.2420   11.7350   24.7150 H   0  0  0  0  0  0  0  0  0  0  0  0
   23.0890    9.3150   24.4830 H   0  0  0  0  0  0  0  0  0  0  0  0
   20.7990    9.6580   22.8820 H   0  0  0  0  0  0  0  0  0  0  0  0
   22.1990   11.2880   22.3120 H   0  0  0  0  0  0  0  0  0  0  0  0
   24.9600   11.3770   23.4610 H   0  0  0  0  0  0  0  0  0  0  0  0
   24.8280   14.8970   23.5520 H   0  0  0  0  0  0  0  0  0  0  0  0
   24.9040   13.7960   24.9410 H   0  0  0  0  0  0  0  0  0  0  0  0
   27.5600   13.3970   21.9220 H   0  0  0  0  0  0  0  0  0  0  0  0
   26.7400   14.9290   22.2560 H   0  0  0  0  0  0  0  0  0  0  0  0
   25.8720   13.6160   21.3980 H   0  0  0  0  0  0  0  0  0  0  0  0
   22.6900    9.1220   21.3870 H   0  0  0  0  0  0  0  0  0  0  0  0
   24.1320    8.9390   22.3540 H   0  0  0  0  0  0  0  0  0  0  0  0
   26.1740    9.9000   21.7630 H   0  0  0  0  0  0  0  0  0  0  0  0
   22.6860   10.8340   19.4630 H   0  0  0  0  0  0  0  0  0  0  0  0
   24.1050   11.8800   17.7430 H   0  0  0  0  0  0  0  0  0  0  0  0
   26.5480   11.9750   18.0230 H   0  0  0  0  0  0  0  0  0  0  0  0
   30.7650   12.6390   19.7390 H   0  0  0  0  0  0  0  0  0  0  0  0
   31.2610   10.4530   21.1840 H   0  0  0  0  0  0  0  0  0  0  0  0
  1  2  1  0  0  0  0
  1  4  1  0  0  0  0
  1 42  1  0  0  0  0
  1 43  1  0  0  0  0
  2  3  1  0  0  0  0
  2 44  1  0  0  0  0
  2 45  1  0  0  0  0
  3  4  1  0  0  0  0
  3 46  1  0  0  0  0
  3 47  1  0  0  0  0
  4  5  1  0  0  0  0
  4  6  1  0  0  0  0
  5 18  1  0  0  0  0
  5 48  1  0  0  0  0
  5 49  1  0  0  0  0
  6  7  1  0  0  0  0
  7  8  1  0  0  0  0
  7 17  2  0  0  0  0
  8  9  2  0  0  0  0
  9 10  1  0  0  0  0
  9 50  1  0  0  0  0
 10 11  1  0  0  0  0
 10 16  2  0  0  0  0
 11 12  1  0  0  0  0
 11 51  1  0  0  0  0
 11 52  1  0  0  0  0
 12 13  1  0  0  0  0
 12 14  1  0  0  0  0
 12 15  1  0  0  0  0
 13 53  1  0  0  0  0
 13 54  1  0  0  0  0
 13 55  1  0  0  0  0
 14 56  1  0  0  0  0
 14 57  1  0  0  0  0
 14 58  1  0  0  0  0
 15 59  1  0  0  0  0
 15 60  1  0  0  0  0
 15 61  1  0  0  0  0
 16 17  1  0  0  0  0
 16 62  1  0  0  0  0
 17 18  1  0  0  0  0
 18 19  1  0  0  0  0
 18 63  1  0  0  0  0
 19 20  1  0  0  0  0
 19 64  1  0  0  0  0
 19 65  1  0  0  0  0
 20 21  1  0  0  0  0
 20 66  1  0  0  0  0
 20 67  1  0  0  0  0
 21 22  1  0  0  0  0
 21 23  1  0  0  0  0
 21 68  1  0  0  0  0
 22 69  1  0  0  0  0
 23 24  1  0  0  0  0
 23 30  1  0  0  0  0
 23 70  1  0  0  0  0
 24 25  1  0  0  0  0
 24 71  1  0  0  0  0
 25 26  2  0  0  0  0
 25 27  1  0  0  0  0
 27 28  1  0  0  0  0
 27 72  1  0  0  0  0
 27 73  1  0  0  0  0
 28 29  1  0  0  0  0
 29 74  1  0  0  0  0
 29 75  1  0  0  0  0
 29 76  1  0  0  0  0
 30 31  1  0  0  0  0
 30 77  1  0  0  0  0
 30 78  1  0  0  0  0
 31 32  1  0  0  0  0
 31 33  2  0  0  0  0
 32 36  2  0  0  0  0
 32 79  1  0  0  0  0
 33 34  1  0  0  0  0
 33 80  1  0  0  0  0
 34 35  2  0  0  0  0
 34 81  1  0  0  0  0
 35 36  1  0  0  0  0
 35 82  1  0  0  0  0
 36 37  1  0  0  0  0
 37 38  2  0  0  0  0
 37 41  1  0  0  0  0
 38 39  1  0  0  0  0
 39 40  2  0  0  0  0
 39 83  1  0  0  0  0
 40 41  1  0  0  0  0
 40 84  1  0  0  0  0
M  CHG  1  19   1
M  END
>  <PARENT_CMPD_ID>
22468684_15

>  <STANDARD_TYPE>
IC50

>  <RELATION>
=

>  <STANDARD_VALUE>
4.0999999

>  <STANDARD_UNITS>
nM

>  <COMPOUND_KEY>
15

>  <PUBMED_ID>
22468684

>  <JOURNAL>
J.Med.Chem.

>  <YEAR>
2012

>  <VOLUME>
55

>  <FIRST_PAGE>
9025

>  <Company>
Amgen

>  <idx>
325

>  <Model>
Valid

>  <target>
8.3872166

>  <des_pred_mlr>
7.55162

>  <RF_Canvas>
7.9035711

>  <DNN_Canvas>
7.9378238

>  <pred_CoMFA>
8.8355999

>  <pred_COMSIA>
8.5845003

>  <pred_abm5>
8.9337244

>  <pred_ff8>
8.3465605

>  <pred_gau6>
8.7556143

>  <CID>
BACE_325

>  <active>
1

>  <des_class_bayes>
1

>  <maacs_class_bayes>
1

>  <radial_class_bayes>
1

>  <dend_class_bayes>
1

>  <molprint_class_bayes>
1

>  <RF_canvas>
1

>  <DNN_canvas>
1

$$$$
CHEMBL1915989
  MOE2015           3D

 99103  0  0  1  0  0  0  0  0999 V2000
   25.4040   20.3870   25.2290 C   0  0  0  0  0  0  0  0  0  0  0  0
   25.3900   21.4600   25.1100 H   0  0  0  0  0  0  0  0  0  0  0  0
   17.1250   13.0570   26.9570 C   0  0  0  0  0  0  0  0  0  0  0  0
   16.1740   13.4740   26.6600 H   0  0  0  0  0  0  0  0  0  0  0  0
   17.4440   12.9360   28.3940 C   0  0  0  0  0  0  0  0  0  0  0  0
   16.7830   13.2700   29.1800 H   0  0  0  0  0  0  0  0  0  0  0  0
   24.7100   19.8080   26.3260 C   0  0  0  0  0  0  0  0  0  0  0  0
   24.1640   20.4060   27.0400 H   0  0  0  0  0  0  0  0  0  0  0  0
   26.1300   19.5830   24.2640 C   0  0  0  0  0  0  0  0  0  0  0  0
   26.6460   20.0670   23.4480 H   0  0  0  0  0  0  0  0  0  0  0  0
   17.9900   12.6600   26.0130 C   0  0  0  0  0  0  0  0  0  0  0  0
   17.7110   12.7940   24.9780 H   0  0  0  0  0  0  0  0  0  0  0  0
   18.6360   12.3710   28.6240 C   0  0  0  0  0  0  0  0  0  0  0  0
   19.1530   12.1550   29.8920 O   0  0  0  0  0  0  0  0  0  0  0  0
   18.3070   12.4220   31.0060 C   0  0  0  0  0  0  0  0  0  0  0  0
   18.0830   13.4910   31.0810 H   0  0  0  0  0  0  0  0  0  0  0  0
   18.8490   12.1320   31.9120 H   0  0  0  0  0  0  0  0  0  0  0  0
   17.3910   11.8240   30.9610 H   0  0  0  0  0  0  0  0  0  0  0  0
   24.7800   18.3870   26.4240 C   0  0  0  0  0  0  0  0  0  0  0  0
   24.2830   17.8880   27.2430 H   0  0  0  0  0  0  0  0  0  0  0  0
   26.1700   18.1870   24.3770 C   0  0  0  0  0  0  0  0  0  0  0  0
   26.7000   17.5790   23.6580 H   0  0  0  0  0  0  0  0  0  0  0  0
   25.0690   10.5070   20.2620 C   0  0  0  0  0  0  0  0  0  0  0  0
   25.7550    9.7530   20.6180 H   0  0  0  0  0  0  0  0  0  0  0  0
   23.1240   11.7620   20.4440 C   0  0  0  0  0  0  0  0  0  0  0  0
   22.2250   12.0200   20.9840 H   0  0  0  0  0  0  0  0  0  0  0  0
   24.4980   12.1410   18.5340 C   0  0  0  0  0  0  0  0  0  0  0  0
   24.7110   12.6320   17.5960 H   0  0  0  0  0  0  0  0  0  0  0  0
   19.3020   12.0500   26.3050 C   0  0  0  0  0  0  0  0  0  0  0  0
   19.6180   11.9240   27.5530 C   0  0  0  0  0  0  0  0  0  0  0  0
   25.4930   17.6110   25.4630 C   0  0  0  0  0  0  0  0  0  0  0  0
   23.9450   10.7950   20.9700 C   0  0  0  0  0  0  0  0  0  0  0  0
   25.3340   11.1920   19.0690 C   0  0  0  0  0  0  0  0  0  0  0  0
   23.3880   12.4220   19.2600 C   0  0  0  0  0  0  0  0  0  0  0  0
   27.1760   13.4810   23.7880 C   0  0  0  0  0  0  0  0  0  0  0  0
   29.5920   15.1570   23.0220 C   0  0  0  0  0  0  0  0  0  0  0  0
   23.7880   13.1820   23.7990 C   0  0  0  0  0  0  0  0  0  0  0  0
   20.1430   11.5960   25.1520 C   0  0  0  0  0  0  0  0  0  0  0  0
   20.2660   12.4470   24.4820 H   0  0  0  0  0  0  0  0  0  0  0  0
   19.5950   10.8060   24.6390 H   0  0  0  0  0  0  0  0  0  0  0  0
   20.9600   11.3460   27.9770 C   0  0  0  0  0  0  0  0  0  0  0  0
   20.7950   10.7120   28.8480 H   0  0  0  0  0  0  0  0  0  0  0  0
   21.6140   12.1750   28.2500 H   0  0  0  0  0  0  0  0  0  0  0  0
   27.3760   13.9370   21.3510 C   0  0  0  0  0  0  0  0  0  0  0  0
   27.9240   14.8250   21.0380 H   0  0  0  0  0  0  0  0  0  0  0  0
   27.2780   13.2550   20.5070 H   0  0  0  0  0  0  0  0  0  0  0  0
   26.0100   14.2920   21.9640 C   0  0  0  0  0  0  0  0  0  0  0  0
   25.2350   13.6800   21.5030 H   0  0  0  0  0  0  0  0  0  0  0  0
   25.7950   15.3460   21.7870 H   0  0  0  0  0  0  0  0  0  0  0  0
   21.5570   11.0490   25.4720 C   0  0  3  0  0  0  0  0  0  0  0  0
   22.1620   11.9520   25.3940 H   0  0  0  0  0  0  0  0  0  0  0  0
   28.0390   13.2480   22.5810 C   0  0  3  0  0  0  0  0  0  0  0  0
   30.9660   15.7280   23.2600 C   0  0  0  0  0  0  0  0  0  0  0  0
   31.7000   14.9230   23.2570 H   0  0  0  0  0  0  0  0  0  0  0  0
   30.9880   16.2350   24.2250 H   0  0  0  0  0  0  0  0  0  0  0  0
   31.2060   16.4400   22.4710 H   0  0  0  0  0  0  0  0  0  0  0  0
   25.5270   16.0950   25.6310 C   0  0  0  0  0  0  0  0  0  0  0  0
   25.2070   15.8190   26.6360 H   0  0  0  0  0  0  0  0  0  0  0  0
   26.5340   15.7180   25.4540 H   0  0  0  0  0  0  0  0  0  0  0  0
   23.5730   10.0500   22.2510 C   0  0  0  0  0  0  0  0  0  0  0  0
   24.4790    9.6300   22.6870 H   0  0  0  0  0  0  0  0  0  0  0  0
   22.8840    9.2440   21.9990 H   0  0  0  0  0  0  0  0  0  0  0  0
   28.2340   11.7380   22.3400 C   0  0  3  0  0  0  0  0  0  0  0  0
   27.2740   11.2260   22.4090 H   0  0  0  0  0  0  0  0  0  0  0  0
   29.1800   11.1730   23.3690 C   0  0  0  0  0  0  0  0  0  0  0  0
   29.3650    9.6970   23.1260 C   0  0  0  0  0  0  0  0  0  0  0  0
   30.0490    9.2890   23.8700 H   0  0  0  0  0  0  0  0  0  0  0  0
   29.7780    9.5420   22.1290 H   0  0  0  0  0  0  0  0  0  0  0  0
   28.4020    9.1930   23.2030 H   0  0  0  0  0  0  0  0  0  0  0  0
   28.7680   11.3290   24.3660 H   0  0  0  0  0  0  0  0  0  0  0  0
   30.1440   11.6780   23.2930 H   0  0  0  0  0  0  0  0  0  0  0  0
   24.5660   15.5340   24.6000 C   0  0  0  0  0  0  0  0  0  0  0  0
   24.6370   16.1150   23.6810 H   0  0  0  0  0  0  0  0  0  0  0  0
   23.5470   15.5850   24.9850 H   0  0  0  0  0  0  0  0  0  0  0  0
   24.9330   14.0820   24.3160 C   0  0  3  0  0  0  0  0  0  0  0  0
   25.1870   13.6600   25.2890 H   0  0  0  0  0  0  0  0  0  0  0  0
   22.2720   10.1410   24.4040 C   0  0  3  0  0  0  0  0  0  0  0  0
   23.0370    9.6490   25.0050 H   0  0  0  0  0  0  0  0  0  0  0  0
   28.8120   11.5550   20.9610 C   0  0  0  0  0  0  0  0  0  0  0  0
   28.4850   12.3580   20.3000 H   0  0  0  0  0  0  0  0  0  0  0  0
   29.8950   11.6560   20.8870 H   0  0  0  0  0  0  0  0  0  0  0  0
   28.4840   10.5480   20.7050 H   0  0  0  0  0  0  0  0  0  0  0  0
   22.9060   10.9610   23.2860 C   0  0  3  0  0  0  0  0  0  0  0  0
   22.0890   11.5400   22.8550 H   0  0  0  0  0  0  0  0  0  0  0  0
   21.6720   10.5120   26.9120 N   0  3  0  0  0  0  0  0  0  0  0  0
   21.2800    9.5810   26.9310 H   0  0  0  0  0  0  0  0  0  0  0  0
   22.6520   10.4690   27.1520 H   0  0  0  0  0  0  0  0  0  0  0  0
   26.0430   14.0320   23.4270 N   0  0  0  0  0  0  0  0  0  0  0  0
   29.2970   13.8780   22.8240 N   0  0  0  0  0  0  0  0  0  0  0  0
   30.0880   13.2510   22.8490 H   0  0  0  0  0  0  0  0  0  0  0  0
   23.9500   11.8400   23.7680 N   0  0  0  0  0  0  0  0  0  0  0  0
   24.8210   11.4410   24.0890 H   0  0  0  0  0  0  0  0  0  0  0  0
   27.4660   13.1340   24.8960 O   0  0  0  0  0  0  0  0  0  0  0  0
   28.6660   15.9310   22.9980 O   0  0  0  0  0  0  0  0  0  0  0  0
   22.7030   13.6580   23.4710 O   0  0  0  0  0  0  0  0  0  0  0  0
   21.5030    9.0740   23.8350 O   0  0  0  0  0  0  0  0  0  0  0  0
   20.8140    9.4690   23.2950 H   0  0  0  0  0  0  0  0  0  0  0  0
   26.4680   10.9370   18.3800 F   0  0  0  0  0  0  0  0  0  0  0  0
   22.5470   13.3570   18.8440 F   0  0  0  0  0  0  0  0  0  0  0  0
  1  2  1  0  0  0  0
  1  7  2  0  0  0  0
  1  9  1  0  0  0  0
  3  4  1  0  0  0  0
  3  5  2  0  0  0  0
  3 11  1  0  0  0  0
  5  6  1  0  0  0  0
  5 13  1  0  0  0  0
  7  8  1  0  0  0  0
  7 19  1  0  0  0  0
  9 10  1  0  0  0  0
  9 21  2  0  0  0  0
 11 12  1  0  0  0  0
 11 29  2  0  0  0  0
 13 14  1  0  0  0  0
 13 30  2  0  0  0  0
 14 15  1  0  0  0  0
 15 16  1  0  0  0  0
 15 17  1  0  0  0  0
 15 18  1  0  0  0  0
 19 20  1  0  0  0  0
 19 31  2  0  0  0  0
 21 22  1  0  0  0  0
 21 31  1  0  0  0  0
 23 24  1  0  0  0  0
 23 32  2  0  0  0  0
 23 33  1  0  0  0  0
 25 26  1  0  0  0  0
 25 32  1  0  0  0  0
 25 34  2  0  0  0  0
 27 28  1  0  0  0  0
 27 33  2  0  0  0  0
 27 34  1  0  0  0  0
 29 30  1  0  0  0  0
 29 38  1  0  0  0  0
 30 41  1  0  0  0  0
 31 57  1  0  0  0  0
 32 60  1  0  0  0  0
 33 98  1  0  0  0  0
 34 99  1  0  0  0  0
 35 52  1  0  0  0  0
 35 88  1  0  0  0  0
 35 93  2  0  0  0  0
 36 53  1  0  0  0  0
 36 89  1  0  0  0  0
 36 94  2  0  0  0  0
 37 75  1  0  0  0  0
 37 91  1  0  0  0  0
 37 95  2  0  0  0  0
 38 39  1  0  0  0  0
 38 40  1  0  0  0  0
 38 50  1  0  0  0  0
 41 42  1  0  0  0  0
 41 43  1  0  0  0  0
 41 85  1  0  0  0  0
 44 45  1  0  0  0  0
 44 46  1  0  0  0  0
 44 47  1  0  0  0  0
 44 52  1  0  0  0  0
 47 48  1  0  0  0  0
 47 49  1  0  0  0  0
 47 88  1  0  0  0  0
 50 51  1  0  0  0  0
 50 77  1  0  0  0  0
 50 85  1  0  0  0  0
 52 63  1  0  0  0  0
 52 89  1  0  0  0  0
 53 54  1  0  0  0  0
 53 55  1  0  0  0  0
 53 56  1  0  0  0  0
 57 58  1  0  0  0  0
 57 59  1  0  0  0  0
 57 72  1  0  0  0  0
 60 61  1  0  0  0  0
 60 62  1  0  0  0  0
 60 83  1  0  0  0  0
 63 64  1  0  0  0  0
 63 65  1  0  0  0  0
 63 79  1  0  0  0  0
 65 66  1  0  0  0  0
 65 70  1  0  0  0  0
 65 71  1  0  0  0  0
 66 67  1  0  0  0  0
 66 68  1  0  0  0  0
 66 69  1  0  0  0  0
 72 73  1  0  0  0  0
 72 74  1  0  0  0  0
 72 75  1  0  0  0  0
 75 76  1  0  0  0  0
 75 88  1  0  0  0  0
 77 78  1  0  0  0  0
 77 83  1  0  0  0  0
 77 96  1  0  0  0  0
 79 80  1  0  0  0  0
 79 81  1  0  0  0  0
 79 82  1  0  0  0  0
 83 84  1  0  0  0  0
 83 91  1  0  0  0  0
 85 86  1  0  0  0  0
 85 87  1  0  0  0  0
 89 90  1  0  0  0  0
 91 92  1  0  0  0  0
 96 97  1  0  0  0  0
M  CHG  1  85   1
M  END
>  <PARENT_CMPD_ID>
CHEMBL1915989

>  <STANDARD_TYPE>
IC50

>  <RELATION>
=

>  <STANDARD_VALUE>
4.1999998

>  <STANDARD_UNITS>
nM

>  <COMPOUND_KEY>
26

>  <PUBMED_ID>
21782431

>  <JOURNAL>
Bioorg.Med.Chem.Lett.

>  <YEAR>
2011

>  <VOLUME>
21

>  <FIRST_PAGE>
6916

>  <Company>
BMS

>  <idx>
326

>  <Model>
Valid

>  <target>
8.3767509

>  <des_pred_mlr>
7.9341102

>  <RF_Canvas>
7.91149

>  <DNN_Canvas>
7.995266

>  <pred_CoMFA>
8.5229998

>  <pred_COMSIA>
8.5494003

>  <pred_abm5>
8.5103216

>  <pred_ff8>
8.3334751

>  <pred_gau6>
9.0257311

>  <CID>
BACE_326

>  <active>
1

>  <des_class_bayes>
1

>  <maacs_class_bayes>
1

>  <radial_class_bayes>
1

>  <dend_class_bayes>
1

>  <molprint_class_bayes>
1

>  <RF_canvas>
1

>  <DNN_canvas>
1

$$$$
mcl886_29
  MOE2015           3D

 78 81  0  0  1  0  0  0  0  0999 V2000
   18.6630   12.1790   29.4680 C   0  0  0  0  0  0  0  0  0  0  0  0
   19.6240   12.6610   30.5510 C   0  0  0  0  0  0  0  0  0  0  0  0
   20.2680   13.5770   29.5150 C   0  0  0  0  0  0  0  0  0  0  0  0
   19.6560   12.6990   28.4000 C   0  0  0  0  0  0  0  0  0  0  0  0
   20.6340   11.7010   27.8050 C   0  0  0  0  0  0  0  0  0  0  0  0
   19.0670   13.4670   27.3390 O   0  0  0  0  0  0  0  0  0  0  0  0
   18.4400   12.7530   26.3540 C   0  0  0  0  0  0  0  0  0  0  0  0
   17.4940   13.4380   25.6960 N   0  0  0  0  0  0  0  0  0  0  0  0
   16.8510   12.7870   24.7140 C   0  0  0  0  0  0  0  0  0  0  0  0
   17.0840   11.4640   24.3720 C   0  0  0  0  0  0  0  0  0  0  0  0
   16.2920   10.8010   23.2860 C   0  0  0  0  0  0  0  0  0  0  0  0
   14.9730   10.1310   23.7190 C   0  0  0  0  0  0  0  0  0  0  0  0
   14.0440   11.1060   24.4430 C   0  0  0  0  0  0  0  0  0  0  0  0
   15.2330    8.9250   24.6210 C   0  0  0  0  0  0  0  0  0  0  0  0
   14.2590    9.6420   22.4540 C   0  0  0  0  0  0  0  0  0  0  0  0
   18.0730   10.7880   25.0780 C   0  0  0  0  0  0  0  0  0  0  0  0
   18.7960   11.4420   26.0750 C   0  0  0  0  0  0  0  0  0  0  0  0
   19.8900   10.7650   26.8460 C   0  0  3  0  0  0  0  0  0  0  0  0
   20.9050   10.0500   25.9870 N   0  3  0  0  0  0  0  0  0  0  0  0
   21.6160   10.8750   24.9460 C   0  0  0  0  0  0  0  0  0  0  0  0
   22.1180    9.9320   23.8530 C   0  0  3  0  0  0  0  0  0  0  0  0
   21.0160    9.1230   23.4300 O   0  0  0  0  0  0  0  0  0  0  0  0
   22.7380   10.7030   22.6720 C   0  0  3  0  0  0  0  0  0  0  0  0
   23.8840   11.4890   23.1140 N   0  0  0  0  0  0  0  0  0  0  0  0
   23.7910   12.8430   23.3330 C   0  0  0  0  0  0  0  0  0  0  0  0
   25.0840   13.4830   23.7440 C   0  0  0  0  0  0  0  0  0  0  0  0
   22.7410   13.4670   23.2380 O   0  0  0  0  0  0  0  0  0  0  0  0
   23.1340    9.7630   21.5150 C   0  0  0  0  0  0  0  0  0  0  0  0
   23.8530   10.4790   20.4030 C   0  0  0  0  0  0  0  0  0  0  0  0
   25.1770   10.1530   20.0990 C   0  0  0  0  0  0  0  0  0  0  0  0
   25.8870   10.8380   19.1170 C   0  0  0  0  0  0  0  0  0  0  0  0
   27.1720   10.4040   18.9450 O   0  0  0  0  0  0  0  0  0  0  0  0
   27.9340   11.0290   17.9200 C   0  0  0  0  0  0  0  0  0  0  0  0
   28.9150   10.5450   17.8940 H   0  0  0  0  0  0  0  0  0  0  0  0
   28.0960   12.0890   18.1390 H   0  0  0  0  0  0  0  0  0  0  0  0
   27.4710   10.8860   16.9380 H   0  0  0  0  0  0  0  0  0  0  0  0
   25.2440   11.8630   18.4380 C   0  0  0  0  0  0  0  0  0  0  0  0
   25.8650   12.5720   17.4940 F   0  0  0  0  0  0  0  0  0  0  0  0
   23.9280   12.1920   18.7160 C   0  0  0  0  0  0  0  0  0  0  0  0
   23.2300   11.4990   19.6900 C   0  0  0  0  0  0  0  0  0  0  0  0
   17.7000   12.7050   29.4720 H   0  0  0  0  0  0  0  0  0  0  0  0
   18.4670   11.1030   29.4730 H   0  0  0  0  0  0  0  0  0  0  0  0
   20.2940   11.8780   30.9230 H   0  0  0  0  0  0  0  0  0  0  0  0
   19.1620   13.1620   31.4050 H   0  0  0  0  0  0  0  0  0  0  0  0
   21.3600   13.6250   29.5550 H   0  0  0  0  0  0  0  0  0  0  0  0
   19.8790   14.6020   29.5360 H   0  0  0  0  0  0  0  0  0  0  0  0
   21.1390   11.1110   28.5800 H   0  0  0  0  0  0  0  0  0  0  0  0
   21.4200   12.2600   27.2830 H   0  0  0  0  0  0  0  0  0  0  0  0
   16.0990   13.3800   24.1980 H   0  0  0  0  0  0  0  0  0  0  0  0
   16.9350   10.0650   22.7840 H   0  0  0  0  0  0  0  0  0  0  0  0
   16.0830   11.5560   22.5140 H   0  0  0  0  0  0  0  0  0  0  0  0
   14.4430   11.4120   25.4150 H   0  0  0  0  0  0  0  0  0  0  0  0
   13.0650   10.6500   24.6350 H   0  0  0  0  0  0  0  0  0  0  0  0
   13.8700   12.0090   23.8460 H   0  0  0  0  0  0  0  0  0  0  0  0
   15.6650    9.2200   25.5840 H   0  0  0  0  0  0  0  0  0  0  0  0
   15.9210    8.2140   24.1490 H   0  0  0  0  0  0  0  0  0  0  0  0
   14.3040    8.3850   24.8400 H   0  0  0  0  0  0  0  0  0  0  0  0
   14.0260   10.4740   21.7800 H   0  0  0  0  0  0  0  0  0  0  0  0
   13.3150    9.1400   22.6950 H   0  0  0  0  0  0  0  0  0  0  0  0
   14.8780    8.9280   21.8990 H   0  0  0  0  0  0  0  0  0  0  0  0
   18.2680    9.7450   24.8410 H   0  0  0  0  0  0  0  0  0  0  0  0
   19.4210    9.9710   27.4400 H   0  0  0  0  0  0  0  0  0  0  0  0
   20.4380    9.2920   25.4580 H   0  0  0  0  0  0  0  0  0  0  0  0
   21.5920    9.5680   26.5810 H   0  0  0  0  0  0  0  0  0  0  0  0
   22.4280   11.4040   25.4510 H   0  0  0  0  0  0  0  0  0  0  0  0
   20.8980   11.5880   24.5330 H   0  0  0  0  0  0  0  0  0  0  0  0
   22.8640    9.2520   24.2830 H   0  0  0  0  0  0  0  0  0  0  0  0
   20.5030    9.6010   22.7500 H   0  0  0  0  0  0  0  0  0  0  0  0
   21.9730   11.3880   22.2840 H   0  0  0  0  0  0  0  0  0  0  0  0
   24.7810   11.0290   23.2410 H   0  0  0  0  0  0  0  0  0  0  0  0
   25.9290   13.0190   23.2280 H   0  0  0  0  0  0  0  0  0  0  0  0
   25.2140   13.3720   24.8240 H   0  0  0  0  0  0  0  0  0  0  0  0
   25.0620   14.5460   23.4870 H   0  0  0  0  0  0  0  0  0  0  0  0
   22.2470    9.2730   21.0960 H   0  0  0  0  0  0  0  0  0  0  0  0
   23.7710    8.9580   21.9060 H   0  0  0  0  0  0  0  0  0  0  0  0
   25.6810    9.3530   20.6390 H   0  0  0  0  0  0  0  0  0  0  0  0
   23.4510   12.9980   18.1660 H   0  0  0  0  0  0  0  0  0  0  0  0
   22.1980   11.7750   19.8960 H   0  0  0  0  0  0  0  0  0  0  0  0
  1  2  1  0  0  0  0
  1  4  1  0  0  0  0
  1 41  1  0  0  0  0
  1 42  1  0  0  0  0
  2  3  1  0  0  0  0
  2 43  1  0  0  0  0
  2 44  1  0  0  0  0
  3  4  1  0  0  0  0
  3 45  1  0  0  0  0
  3 46  1  0  0  0  0
  4  5  1  0  0  0  0
  4  6  1  0  0  0  0
  5 18  1  0  0  0  0
  5 47  1  0  0  0  0
  5 48  1  0  0  0  0
  6  7  1  0  0  0  0
  7  8  1  0  0  0  0
  7 17  2  0  0  0  0
  8  9  2  0  0  0  0
  9 10  1  0  0  0  0
  9 49  1  0  0  0  0
 10 11  1  0  0  0  0
 10 16  2  0  0  0  0
 11 12  1  0  0  0  0
 11 50  1  0  0  0  0
 11 51  1  0  0  0  0
 12 13  1  0  0  0  0
 12 14  1  0  0  0  0
 12 15  1  0  0  0  0
 13 52  1  0  0  0  0
 13 53  1  0  0  0  0
 13 54  1  0  0  0  0
 14 55  1  0  0  0  0
 14 56  1  0  0  0  0
 14 57  1  0  0  0  0
 15 58  1  0  0  0  0
 15 59  1  0  0  0  0
 15 60  1  0  0  0  0
 16 17  1  0  0  0  0
 16 61  1  0  0  0  0
 17 18  1  0  0  0  0
 18 19  1  0  0  0  0
 18 62  1  0  0  0  0
 19 20  1  0  0  0  0
 19 63  1  0  0  0  0
 19 64  1  0  0  0  0
 20 21  1  0  0  0  0
 20 65  1  0  0  0  0
 20 66  1  0  0  0  0
 21 22  1  0  0  0  0
 21 23  1  0  0  0  0
 21 67  1  0  0  0  0
 22 68  1  0  0  0  0
 23 24  1  0  0  0  0
 23 28  1  0  0  0  0
 23 69  1  0  0  0  0
 24 25  1  0  0  0  0
 24 70  1  0  0  0  0
 25 26  1  0  0  0  0
 25 27  2  0  0  0  0
 26 71  1  0  0  0  0
 26 72  1  0  0  0  0
 26 73  1  0  0  0  0
 28 29  1  0  0  0  0
 28 74  1  0  0  0  0
 28 75  1  0  0  0  0
 29 30  1  0  0  0  0
 29 40  2  0  0  0  0
 30 31  2  0  0  0  0
 30 76  1  0  0  0  0
 31 32  1  0  0  0  0
 31 37  1  0  0  0  0
 32 33  1  0  0  0  0
 33 34  1  0  0  0  0
 33 35  1  0  0  0  0
 33 36  1  0  0  0  0
 37 38  1  0  0  0  0
 37 39  2  0  0  0  0
 39 40  1  0  0  0  0
 39 77  1  0  0  0  0
 40 78  1  0  0  0  0
M  CHG  1  19   1
M  END
>  <PARENT_CMPD_ID>
mcl886_29

>  <STANDARD_TYPE>
IC50

>  <RELATION>
=

>  <STANDARD_VALUE>
4.5

>  <STANDARD_UNITS>
nM

>  <COMPOUND_KEY>
29

>  <PUBMED_ID>
24900403

>  <JOURNAL>
ACS Med. Chem. Lett.

>  <YEAR>
2012

>  <VOLUME>
3

>  <FIRST_PAGE>
886

>  <Company>
Amgen

>  <idx>
327

>  <Model>
Valid

>  <target>
8.3467875

>  <des_pred_mlr>
6.9323401

>  <RF_Canvas>
7.9144964

>  <DNN_Canvas>
8.063592

>  <pred_CoMFA>
7.7835002

>  <pred_COMSIA>
7.3590002

>  <pred_abm5>
8.1277647

>  <pred_ff8>
6.98384

>  <pred_gau6>
7.9323354

>  <CID>
BACE_327

>  <active>
1

>  <des_class_bayes>
0

>  <maacs_class_bayes>
1

>  <radial_class_bayes>
1

>  <dend_class_bayes>
1

>  <molprint_class_bayes>
1

>  <RF_canvas>
1

>  <DNN_canvas>
1

$$$$
CHEMBL1915996
  MOE2015           3D

 92 95  0  0  1  0  0  0  0  0999 V2000
   25.1250   20.4600   25.3770 C   0  0  0  0  0  0  0  0  0  0  0  0
   25.0110   21.5340   25.3990 H   0  0  0  0  0  0  0  0  0  0  0  0
   24.5530   19.6790   26.3820 C   0  0  0  0  0  0  0  0  0  0  0  0
   23.9970   20.1390   27.1860 H   0  0  0  0  0  0  0  0  0  0  0  0
   25.8500   19.8520   24.3350 C   0  0  0  0  0  0  0  0  0  0  0  0
   26.2880   20.4650   23.5610 H   0  0  0  0  0  0  0  0  0  0  0  0
   24.7120   18.2920   26.3300 C   0  0  0  0  0  0  0  0  0  0  0  0
   24.2700   17.6760   27.0990 H   0  0  0  0  0  0  0  0  0  0  0  0
   26.0110   18.4630   24.2890 C   0  0  0  0  0  0  0  0  0  0  0  0
   26.5700   17.9990   23.4900 H   0  0  0  0  0  0  0  0  0  0  0  0
   23.1870   11.8460   20.3250 C   0  0  0  0  0  0  0  0  0  0  0  0
   22.2260   12.1450   20.7180 H   0  0  0  0  0  0  0  0  0  0  0  0
   25.1040   10.4330   20.3920 C   0  0  0  0  0  0  0  0  0  0  0  0
   25.6580    9.6180   20.8340 H   0  0  0  0  0  0  0  0  0  0  0  0
   24.9360   12.1640   18.6930 C   0  0  0  0  0  0  0  0  0  0  0  0
   25.3360   12.6830   17.8350 H   0  0  0  0  0  0  0  0  0  0  0  0
   25.4350   17.6910   25.2960 C   0  0  0  0  0  0  0  0  0  0  0  0
   23.8700   10.7920   20.9260 C   0  0  0  0  0  0  0  0  0  0  0  0
   23.7120   12.5220   19.2320 C   0  0  0  0  0  0  0  0  0  0  0  0
   25.6390   11.1160   19.2860 C   0  0  0  0  0  0  0  0  0  0  0  0
   27.1750   13.4880   23.6660 C   0  0  0  0  0  0  0  0  0  0  0  0
   23.6640   13.1990   23.8080 C   0  0  0  0  0  0  0  0  0  0  0  0
   27.2350   14.1150   21.3400 C   0  0  0  0  0  0  0  0  0  0  0  0
   27.5580   15.1550   21.2900 H   0  0  0  0  0  0  0  0  0  0  0  0
   27.3370   13.6550   20.3570 H   0  0  0  0  0  0  0  0  0  0  0  0
   20.4890   11.9020   25.1990 C   0  0  0  0  0  0  0  0  0  0  0  0
   20.8500   12.9300   25.1550 H   0  0  0  0  0  0  0  0  0  0  0  0
   20.0890   11.6150   24.2260 H   0  0  0  0  0  0  0  0  0  0  0  0
   25.8080   13.9890   21.8800 C   0  0  0  0  0  0  0  0  0  0  0  0
   25.3190   13.1130   21.4530 H   0  0  0  0  0  0  0  0  0  0  0  0
   25.2320   14.8820   21.6350 H   0  0  0  0  0  0  0  0  0  0  0  0
   20.1540   11.0320   27.3770 C   0  0  0  0  0  0  0  0  0  0  0  0
   19.4610   10.5130   28.0390 H   0  0  0  0  0  0  0  0  0  0  0  0
   20.7690   11.7180   27.9600 H   0  0  0  0  0  0  0  0  0  0  0  0
   19.4070   11.7700   26.2720 C   0  0  3  0  0  0  0  0  0  0  0  0
   18.9590   12.7220   26.5570 H   0  0  0  0  0  0  0  0  0  0  0  0
   21.6380   10.9530   25.6010 C   0  0  3  0  0  0  0  0  0  0  0  0
   22.4980   11.5110   25.9720 H   0  0  0  0  0  0  0  0  0  0  0  0
   27.9980   13.3320   22.4170 C   0  0  3  0  0  0  0  0  0  0  0  0
   29.0320   13.6410   22.5690 H   0  0  0  0  0  0  0  0  0  0  0  0
   16.0490    9.3610   24.5570 C   0  0  0  0  0  0  0  0  0  0  0  0
   15.6890    8.8420   23.6690 H   0  0  0  0  0  0  0  0  0  0  0  0
   15.2230    9.5050   25.2530 H   0  0  0  0  0  0  0  0  0  0  0  0
   16.8280    8.7670   25.0350 H   0  0  0  0  0  0  0  0  0  0  0  0
   25.5880   16.1920   25.2840 C   0  0  0  0  0  0  0  0  0  0  0  0
   25.5430   15.8240   26.3090 H   0  0  0  0  0  0  0  0  0  0  0  0
   26.5550   15.9390   24.8500 H   0  0  0  0  0  0  0  0  0  0  0  0
   23.2770   10.0620   22.1220 C   0  0  0  0  0  0  0  0  0  0  0  0
   24.0490    9.4200   22.5450 H   0  0  0  0  0  0  0  0  0  0  0  0
   22.4480    9.4490   21.7690 H   0  0  0  0  0  0  0  0  0  0  0  0
   27.8650   11.8720   21.9640 C   0  0  3  0  0  0  0  0  0  0  0  0
   27.2960   11.8870   21.0340 H   0  0  0  0  0  0  0  0  0  0  0  0
   27.2860   11.2480   23.0980 O   0  0  0  0  0  0  0  0  0  0  0  0
   27.1690   10.3180   22.8900 H   0  0  0  0  0  0  0  0  0  0  0  0
   16.6220   10.7260   24.1550 C   0  0  0  0  0  0  0  0  0  0  0  0
   15.8370   11.3080   23.6720 H   0  0  0  0  0  0  0  0  0  0  0  0
   17.4420   10.5700   23.4540 H   0  0  0  0  0  0  0  0  0  0  0  0
   24.4840   15.5150   24.4650 C   0  0  0  0  0  0  0  0  0  0  0  0
   24.4070   15.9970   23.4900 H   0  0  0  0  0  0  0  0  0  0  0  0
   23.5340   15.6050   24.9910 H   0  0  0  0  0  0  0  0  0  0  0  0
   17.1490   11.5140   25.3650 C   0  0  0  0  0  0  0  0  0  0  0  0
   16.4130   11.4910   26.1690 H   0  0  0  0  0  0  0  0  0  0  0  0
   17.3390   12.5480   25.0770 H   0  0  0  0  0  0  0  0  0  0  0  0
   24.8240   14.0400   24.2780 C   0  0  3  0  0  0  0  0  0  0  0  0
   25.1090   13.7090   25.2770 H   0  0  0  0  0  0  0  0  0  0  0  0
   22.2260   10.1380   24.4290 C   0  0  3  0  0  0  0  0  0  0  0  0
   23.1120    9.6280   24.8060 H   0  0  0  0  0  0  0  0  0  0  0  0
   29.0960   11.0120   21.7030 C   0  0  0  0  0  0  0  0  0  0  0  0
   29.7390   11.0460   22.5830 H   0  0  0  0  0  0  0  0  0  0  0  0
   28.6510    9.5920   21.4610 C   0  0  0  0  0  0  0  0  0  0  0  0
   29.6410   11.3800   20.8340 H   0  0  0  0  0  0  0  0  0  0  0  0
   29.5220    8.9650   21.2730 H   0  0  0  0  0  0  0  0  0  0  0  0
   27.9870    9.5610   20.5960 H   0  0  0  0  0  0  0  0  0  0  0  0
   27.9170    9.0810   22.6760 C   0  0  0  0  0  0  0  0  0  0  0  0
   27.5950    8.0550   22.5010 H   0  0  0  0  0  0  0  0  0  0  0  0
   27.0450    9.7080   22.8640 H   0  0  0  0  0  0  0  0  0  0  0  0
   28.5800    9.1120   23.5400 H   0  0  0  0  0  0  0  0  0  0  0  0
   22.7500   10.9840   23.2440 C   0  0  3  0  0  0  0  0  0  0  0  0
   21.9310   11.5870   22.8520 H   0  0  0  0  0  0  0  0  0  0  0  0
   21.0040   10.0590   26.6180 N   0  3  0  0  0  0  0  0  0  0  0  0
   20.4440    9.3410   26.1810 H   0  0  0  0  0  0  0  0  0  0  0  0
   21.6960    9.6290   27.2150 H   0  0  0  0  0  0  0  0  0  0  0  0
   25.9260   13.8440   23.3410 N   0  0  0  0  0  0  0  0  0  0  0  0
   23.8270   11.8630   23.7040 N   0  0  0  0  0  0  0  0  0  0  0  0
   24.7190   11.4580   23.9510 H   0  0  0  0  0  0  0  0  0  0  0  0
   27.5680   13.2710   24.7900 O   0  0  0  0  0  0  0  0  0  0  0  0
   22.5950   13.7100   23.5250 O   0  0  0  0  0  0  0  0  0  0  0  0
   21.2320    9.2070   23.9900 O   0  0  0  0  0  0  0  0  0  0  0  0
   20.4810    9.7130   23.6710 H   0  0  0  0  0  0  0  0  0  0  0  0
   18.3730   10.8990   25.8080 O   0  0  0  0  0  0  0  0  0  0  0  0
   23.0210   13.5220   18.6820 F   0  0  0  0  0  0  0  0  0  0  0  0
   26.8390   10.7710   18.7780 F   0  0  0  0  0  0  0  0  0  0  0  0
  1  2  1  0  0  0  0
  1  3  2  0  0  0  0
  1  5  1  0  0  0  0
  3  4  1  0  0  0  0
  3  7  1  0  0  0  0
  5  6  1  0  0  0  0
  5  9  2  0  0  0  0
  7  8  1  0  0  0  0
  7 17  2  0  0  0  0
  9 10  1  0  0  0  0
  9 17  1  0  0  0  0
 11 12  1  0  0  0  0
 11 18  2  0  0  0  0
 11 19  1  0  0  0  0
 13 14  1  0  0  0  0
 13 18  1  0  0  0  0
 13 20  2  0  0  0  0
 15 16  1  0  0  0  0
 15 19  2  0  0  0  0
 15 20  1  0  0  0  0
 17 45  1  0  0  0  0
 18 48  1  0  0  0  0
 19 91  1  0  0  0  0
 20 92  1  0  0  0  0
 21 39  1  0  0  0  0
 21 83  1  0  0  0  0
 21 86  2  0  0  0  0
 22 64  1  0  0  0  0
 22 84  1  0  0  0  0
 22 87  2  0  0  0  0
 23 24  1  0  0  0  0
 23 25  1  0  0  0  0
 23 29  1  0  0  0  0
 23 39  1  0  0  0  0
 26 27  1  0  0  0  0
 26 28  1  0  0  0  0
 26 35  1  0  0  0  0
 26 37  1  0  0  0  0
 29 30  1  0  0  0  0
 29 31  1  0  0  0  0
 29 83  1  0  0  0  0
 32 33  1  0  0  0  0
 32 34  1  0  0  0  0
 32 35  1  0  0  0  0
 32 80  1  0  0  0  0
 35 36  1  0  0  0  0
 35 90  1  0  0  0  0
 37 38  1  0  0  0  0
 37 66  1  0  0  0  0
 37 80  1  0  0  0  0
 39 40  1  0  0  0  0
 39 51  1  0  0  0  0
 41 42  1  0  0  0  0
 41 43  1  0  0  0  0
 41 44  1  0  0  0  0
 41 55  1  0  0  0  0
 45 46  1  0  0  0  0
 45 47  1  0  0  0  0
 45 58  1  0  0  0  0
 48 49  1  0  0  0  0
 48 50  1  0  0  0  0
 48 78  1  0  0  0  0
 51 52  1  0  0  0  0
 51 53  1  0  0  0  0
 51 68  1  0  0  0  0
 53 54  1  0  0  0  0
 55 56  1  0  0  0  0
 55 57  1  0  0  0  0
 55 61  1  0  0  0  0
 58 59  1  0  0  0  0
 58 60  1  0  0  0  0
 58 64  1  0  0  0  0
 61 62  1  0  0  0  0
 61 63  1  0  0  0  0
 61 90  1  0  0  0  0
 64 65  1  0  0  0  0
 64 83  1  0  0  0  0
 66 67  1  0  0  0  0
 66 78  1  0  0  0  0
 66 88  1  0  0  0  0
 68 69  1  0  0  0  0
 68 70  1  0  0  0  0
 68 71  1  0  0  0  0
 70 72  1  0  0  0  0
 70 73  1  0  0  0  0
 70 74  1  0  0  0  0
 74 75  1  0  0  0  0
 74 76  1  0  0  0  0
 74 77  1  0  0  0  0
 78 79  1  0  0  0  0
 78 84  1  0  0  0  0
 80 81  1  0  0  0  0
 80 82  1  0  0  0  0
 84 85  1  0  0  0  0
 88 89  1  0  0  0  0
M  CHG  1  80   1
M  END
>  <PARENT_CMPD_ID>
CHEMBL1915996

>  <STANDARD_TYPE>
IC50

>  <RELATION>
=

>  <STANDARD_VALUE>
4.6999998

>  <STANDARD_UNITS>
nM

>  <COMPOUND_KEY>
28g

>  <PUBMED_ID>
21782431

>  <JOURNAL>
Bioorg.Med.Chem.Lett.

>  <YEAR>
2011

>  <VOLUME>
21

>  <FIRST_PAGE>
6916

>  <Company>
BMS

>  <idx>
328

>  <Model>
Valid

>  <target>
8.3279018

>  <des_pred_mlr>
7.3353701

>  <RF_Canvas>
7.6824622

>  <DNN_Canvas>
7.7866817

>  <pred_CoMFA>
8.4912004

>  <pred_COMSIA>
8.5613003

>  <pred_abm5>
9.0145121

>  <pred_ff8>
7.2702947

>  <pred_gau6>
8.6244526

>  <CID>
BACE_328

>  <active>
1

>  <des_class_bayes>
1

>  <maacs_class_bayes>
1

>  <radial_class_bayes>
0

>  <dend_class_bayes>
1

>  <molprint_class_bayes>
1

>  <RF_canvas>
1

>  <DNN_canvas>
1

$$$$
CHEMBL559355
  MOE2015           3D

 78 82  0  0  1  0  0  0  0  0999 V2000
   29.5890   11.1430   21.5130 C   0  0  0  0  0  0  0  0  0  0  0  0
   29.2890   12.5250   20.9780 C   0  0  0  0  0  0  0  0  0  0  0  0
   29.0820   13.4960   22.0310 N   0  0  0  0  0  0  0  0  0  0  0  0
   30.0420   14.3500   22.4740 C   0  0  0  0  0  0  0  0  0  0  0  0
   29.5100   15.1200   23.4800 C   0  0  0  0  0  0  0  0  0  0  0  0
   30.1950   16.2560   24.1410 C   0  0  0  0  0  0  0  0  0  0  0  0
   30.0800   16.2760   25.6400 C   0  0  0  0  0  0  0  0  0  0  0  0
   28.4630   16.7310   26.2410 S   0  0  0  0  0  0  0  0  0  0  0  0
   28.5750   16.8300   27.6820 O   0  0  0  0  0  0  0  0  0  0  0  0
   27.9100   17.8260   25.4760 O   0  0  0  0  0  0  0  0  0  0  0  0
   27.5010   15.3770   25.9670 N   0  0  0  0  0  0  0  0  0  0  0  0
   27.7600   14.2270   26.8830 C   0  0  0  0  0  0  0  0  0  0  0  0
   27.1770   14.9700   24.6300 C   0  0  0  0  0  0  0  0  0  0  0  0
   25.9030   14.4100   24.4740 C   0  0  0  0  0  0  0  0  0  0  0  0
   25.6580   13.4760   23.4850 C   0  0  0  0  0  0  0  0  0  0  0  0
   26.6640   13.0970   22.5980 C   0  0  0  0  0  0  0  0  0  0  0  0
   27.9150   13.7040   22.7200 C   0  0  0  0  0  0  0  0  0  0  0  0
   28.1790   14.6710   23.6870 C   0  0  0  0  0  0  0  0  0  0  0  0
   24.3290   12.8270   23.4300 C   0  0  0  0  0  0  0  0  0  0  0  0
   23.2950   13.4680   23.5560 O   0  0  0  0  0  0  0  0  0  0  0  0
   24.3520   11.4690   23.1960 N   0  0  0  0  0  0  0  0  0  0  0  0
   23.1520   10.7030   22.8740 C   0  0  3  0  0  0  0  0  0  0  0  0
   23.4480    9.7470   21.6990 C   0  0  0  0  0  0  0  0  0  0  0  0
   24.2830   10.3800   20.6150 C   0  0  0  0  0  0  0  0  0  0  0  0
   23.8800   11.5630   19.9950 C   0  0  0  0  0  0  0  0  0  0  0  0
   24.6970   12.1810   19.0580 C   0  0  0  0  0  0  0  0  0  0  0  0
   25.9120   11.6120   18.7120 C   0  0  0  0  0  0  0  0  0  0  0  0
   26.3120   10.4240   19.3020 C   0  0  0  0  0  0  0  0  0  0  0  0
   25.5030    9.8100   20.2490 C   0  0  0  0  0  0  0  0  0  0  0  0
   22.6070    9.9740   24.1190 C   0  0  3  0  0  0  0  0  0  0  0  0
   21.4480    9.1880   23.8070 O   0  0  0  0  0  0  0  0  0  0  0  0
   22.1800   10.9850   25.1830 C   0  0  0  0  0  0  0  0  0  0  0  0
   21.1810   10.3200   26.0850 N   0  3  0  0  0  0  0  0  0  0  0  0
   20.1780   11.2620   26.6820 C   0  0  0  0  0  0  0  0  0  0  0  0
   19.5250   10.6020   27.8810 C   0  0  0  0  0  0  0  0  0  0  0  0
   18.4200   11.5020   28.4160 C   0  0  0  0  0  0  0  0  0  0  0  0
   17.4750   11.7940   27.3900 O   0  0  0  0  0  0  0  0  0  0  0  0
   18.0480   12.4960   26.2900 C   0  0  0  0  0  0  0  0  0  0  0  0
   19.1140   11.6350   25.6480 C   0  0  0  0  0  0  0  0  0  0  0  0
   29.7550   10.4440   20.6870 H   0  0  0  0  0  0  0  0  0  0  0  0
   28.7610   10.7600   22.1180 H   0  0  0  0  0  0  0  0  0  0  0  0
   30.4860   11.1470   22.1410 H   0  0  0  0  0  0  0  0  0  0  0  0
   28.3980   12.5190   20.3440 H   0  0  0  0  0  0  0  0  0  0  0  0
   30.1200   12.8760   20.3550 H   0  0  0  0  0  0  0  0  0  0  0  0
   31.0260   14.3710   22.0220 H   0  0  0  0  0  0  0  0  0  0  0  0
   29.8160   17.1920   23.7130 H   0  0  0  0  0  0  0  0  0  0  0  0
   31.2620   16.2200   23.8860 H   0  0  0  0  0  0  0  0  0  0  0  0
   30.7550   17.0420   26.0400 H   0  0  0  0  0  0  0  0  0  0  0  0
   30.3660   15.3250   26.0990 H   0  0  0  0  0  0  0  0  0  0  0  0
   26.9860   13.4590   26.7790 H   0  0  0  0  0  0  0  0  0  0  0  0
   27.7270   14.5440   27.9300 H   0  0  0  0  0  0  0  0  0  0  0  0
   28.7280   13.7650   26.6710 H   0  0  0  0  0  0  0  0  0  0  0  0
   25.1350   14.6280   25.2140 H   0  0  0  0  0  0  0  0  0  0  0  0
   26.4810   12.3630   21.8200 H   0  0  0  0  0  0  0  0  0  0  0  0
   25.2410   10.9800   23.2210 H   0  0  0  0  0  0  0  0  0  0  0  0
   22.3810   11.4040   22.5250 H   0  0  0  0  0  0  0  0  0  0  0  0
   23.9700    8.8620   22.0860 H   0  0  0  0  0  0  0  0  0  0  0  0
   22.5110    9.3840   21.2580 H   0  0  0  0  0  0  0  0  0  0  0  0
   22.9290   12.0260   20.2480 H   0  0  0  0  0  0  0  0  0  0  0  0
   24.3770   13.1080   18.5870 H   0  0  0  0  0  0  0  0  0  0  0  0
   26.5460   12.0940   17.9720 H   0  0  0  0  0  0  0  0  0  0  0  0
   27.2600    9.9720   19.0240 H   0  0  0  0  0  0  0  0  0  0  0  0
   25.8420    8.8830   20.7050 H   0  0  0  0  0  0  0  0  0  0  0  0
   23.3600    9.2970   24.5410 H   0  0  0  0  0  0  0  0  0  0  0  0
   21.7160    8.4510   23.2250 H   0  0  0  0  0  0  0  0  0  0  0  0
   21.6760   11.8380   24.7240 H   0  0  0  0  0  0  0  0  0  0  0  0
   23.0100   11.3400   25.8000 H   0  0  0  0  0  0  0  0  0  0  0  0
   21.6710    9.7690   26.8020 H   0  0  0  0  0  0  0  0  0  0  0  0
   20.7160    9.6260   25.4630 H   0  0  0  0  0  0  0  0  0  0  0  0
   20.7340   12.1500   27.0090 H   0  0  0  0  0  0  0  0  0  0  0  0
   20.2610   10.4030   28.6690 H   0  0  0  0  0  0  0  0  0  0  0  0
   19.0910    9.6390   27.5830 H   0  0  0  0  0  0  0  0  0  0  0  0
   18.8250   12.4390   28.8180 H   0  0  0  0  0  0  0  0  0  0  0  0
   17.8880   10.9970   29.2280 H   0  0  0  0  0  0  0  0  0  0  0  0
   17.2490   12.7060   25.5720 H   0  0  0  0  0  0  0  0  0  0  0  0
   18.4510   13.4560   26.6330 H   0  0  0  0  0  0  0  0  0  0  0  0
   18.6510   10.7200   25.2550 H   0  0  0  0  0  0  0  0  0  0  0  0
   19.5460   12.1720   24.7980 H   0  0  0  0  0  0  0  0  0  0  0  0
  1  2  1  0  0  0  0
  1 40  1  0  0  0  0
  1 41  1  0  0  0  0
  1 42  1  0  0  0  0
  2  3  1  0  0  0  0
  2 43  1  0  0  0  0
  2 44  1  0  0  0  0
  3  4  1  0  0  0  0
  3 17  1  0  0  0  0
  4  5  2  0  0  0  0
  4 45  1  0  0  0  0
  5  6  1  0  0  0  0
  5 18  1  0  0  0  0
  6  7  1  0  0  0  0
  6 46  1  0  0  0  0
  6 47  1  0  0  0  0
  7  8  1  0  0  0  0
  7 48  1  0  0  0  0
  7 49  1  0  0  0  0
  8  9  2  0  0  0  0
  8 10  2  0  0  0  0
  8 11  1  0  0  0  0
 11 12  1  0  0  0  0
 11 13  1  0  0  0  0
 12 50  1  0  0  0  0
 12 51  1  0  0  0  0
 12 52  1  0  0  0  0
 13 14  1  0  0  0  0
 13 18  2  0  0  0  0
 14 15  2  0  0  0  0
 14 53  1  0  0  0  0
 15 16  1  0  0  0  0
 15 19  1  0  0  0  0
 16 17  2  0  0  0  0
 16 54  1  0  0  0  0
 17 18  1  0  0  0  0
 19 20  2  0  0  0  0
 19 21  1  0  0  0  0
 21 22  1  0  0  0  0
 21 55  1  0  0  0  0
 22 23  1  0  0  0  0
 22 30  1  0  0  0  0
 22 56  1  0  0  0  0
 23 24  1  0  0  0  0
 23 57  1  0  0  0  0
 23 58  1  0  0  0  0
 24 25  1  0  0  0  0
 24 29  2  0  0  0  0
 25 26  2  0  0  0  0
 25 59  1  0  0  0  0
 26 27  1  0  0  0  0
 26 60  1  0  0  0  0
 27 28  2  0  0  0  0
 27 61  1  0  0  0  0
 28 29  1  0  0  0  0
 28 62  1  0  0  0  0
 29 63  1  0  0  0  0
 30 31  1  0  0  0  0
 30 32  1  0  0  0  0
 30 64  1  0  0  0  0
 31 65  1  0  0  0  0
 32 33  1  0  0  0  0
 32 66  1  0  0  0  0
 32 67  1  0  0  0  0
 33 34  1  0  0  0  0
 33 68  1  0  0  0  0
 33 69  1  0  0  0  0
 34 35  1  0  0  0  0
 34 39  1  0  0  0  0
 34 70  1  0  0  0  0
 35 36  1  0  0  0  0
 35 71  1  0  0  0  0
 35 72  1  0  0  0  0
 36 37  1  0  0  0  0
 36 73  1  0  0  0  0
 36 74  1  0  0  0  0
 37 38  1  0  0  0  0
 38 39  1  0  0  0  0
 38 75  1  0  0  0  0
 38 76  1  0  0  0  0
 39 77  1  0  0  0  0
 39 78  1  0  0  0  0
M  CHG  1  33   1
M  END
>  <PARENT_CMPD_ID>
CHEMBL559355

>  <STANDARD_TYPE>
IC50

>  <RELATION>
=

>  <STANDARD_VALUE>
5

>  <STANDARD_UNITS>
nM

>  <COMPOUND_KEY>
5

>  <PUBMED_ID>
19406640

>  <JOURNAL>
Bioorg. Med. Chem. Lett.

>  <YEAR>
2009

>  <VOLUME>
19

>  <FIRST_PAGE>
3674

>  <Company>
GSK

>  <idx>
329

>  <Model>
Valid

>  <target>
8.3010302

>  <des_pred_mlr>
6.71416

>  <RF_Canvas>
7.6255188

>  <DNN_Canvas>
7.5866332

>  <pred_CoMFA>
7.4475999

>  <pred_COMSIA>
6.54

>  <pred_abm5>
6.5696836

>  <pred_ff8>
6.3654194

>  <pred_gau6>
6.2811828

>  <CID>
BACE_329

>  <active>
1

>  <des_class_bayes>
1

>  <maacs_class_bayes>
1

>  <radial_class_bayes>
1

>  <dend_class_bayes>
1

>  <molprint_class_bayes>
1

>  <RF_canvas>
1

>  <DNN_canvas>
1

$$$$
CHEMBL560151
  MOE2015           3D

 73 77  0  0  1  0  0  0  0  0999 V2000
   29.6380   11.0580   21.5960 C   0  0  0  0  0  0  0  0  0  0  0  0
   29.3300   12.4300   21.0420 C   0  0  0  0  0  0  0  0  0  0  0  0
   29.1220   13.4210   22.0770 N   0  0  0  0  0  0  0  0  0  0  0  0
   30.0750   14.3080   22.4880 C   0  0  0  0  0  0  0  0  0  0  0  0
   29.5140   15.1400   23.4240 C   0  0  0  0  0  0  0  0  0  0  0  0
   30.1080   16.3350   24.0740 C   0  0  0  0  0  0  0  0  0  0  0  0
   30.2040   16.2810   25.5830 C   0  0  0  0  0  0  0  0  0  0  0  0
   28.6990   15.9150   26.4810 S   0  0  0  0  0  0  0  0  0  0  0  0
   28.7080   14.5030   26.7950 O   0  0  0  0  0  0  0  0  0  0  0  0
   28.5700   16.8790   27.5540 O   0  0  0  0  0  0  0  0  0  0  0  0
   27.4470   16.2350   25.3650 N   0  0  0  0  0  0  0  0  0  0  0  0
   26.3330   17.0600   25.8500 C   0  0  0  0  0  0  0  0  0  0  0  0
   27.1560   15.1600   24.4550 C   0  0  0  0  0  0  0  0  0  0  0  0
   25.9160   14.5180   24.4210 C   0  0  0  0  0  0  0  0  0  0  0  0
   25.7020   13.4460   23.5630 C   0  0  0  0  0  0  0  0  0  0  0  0
   26.7150   12.9890   22.7130 C   0  0  0  0  0  0  0  0  0  0  0  0
   27.9550   13.6270   22.7680 C   0  0  0  0  0  0  0  0  0  0  0  0
   28.1820   14.6980   23.6180 C   0  0  0  0  0  0  0  0  0  0  0  0
   24.3550   12.8220   23.5190 C   0  0  0  0  0  0  0  0  0  0  0  0
   23.3350   13.4950   23.5950 O   0  0  0  0  0  0  0  0  0  0  0  0
   24.3400   11.4590   23.3220 N   0  0  0  0  0  0  0  0  0  0  0  0
   23.1150   10.7250   23.0170 C   0  0  3  0  0  0  0  0  0  0  0  0
   23.3690    9.7920   21.8030 C   0  0  0  0  0  0  0  0  0  0  0  0
   24.2170   10.4060   20.7130 C   0  0  0  0  0  0  0  0  0  0  0  0
   23.8330   11.5870   20.0790 C   0  0  0  0  0  0  0  0  0  0  0  0
   24.6510   12.1760   19.1230 C   0  0  0  0  0  0  0  0  0  0  0  0
   25.8560   11.5850   18.7760 C   0  0  0  0  0  0  0  0  0  0  0  0
   26.2420   10.4010   19.3850 C   0  0  0  0  0  0  0  0  0  0  0  0
   25.4270    9.8150   20.3460 C   0  0  0  0  0  0  0  0  0  0  0  0
   22.5680    9.9400   24.2320 C   0  0  2  0  0  0  0  0  0  0  0  0
   21.4530    9.1490   23.7990 O   0  0  0  0  0  0  0  0  0  0  0  0
   22.1200   10.8060   25.4400 C   0  0  0  0  0  0  0  0  0  0  0  0
   20.8040   10.3390   25.8890 N   0  0  0  0  0  0  0  0  0  0  0  0
   19.6990   11.1710   25.9780 C   0  0  0  0  0  0  0  0  0  0  0  0
   18.4570   10.6830   25.5640 C   0  0  0  0  0  0  0  0  0  0  0  0
   17.3650   11.5310   25.3710 C   0  0  0  0  0  0  0  0  0  0  0  0
   17.4790   12.8870   25.6340 C   0  0  0  0  0  0  0  0  0  0  0  0
   18.6770   13.3800   26.1150 C   0  0  0  0  0  0  0  0  0  0  0  0
   19.7730   12.5290   26.2750 C   0  0  0  0  0  0  0  0  0  0  0  0
   29.8020   10.3460   20.7810 H   0  0  0  0  0  0  0  0  0  0  0  0
   28.8150   10.6800   22.2130 H   0  0  0  0  0  0  0  0  0  0  0  0
   30.5380   11.0770   22.2200 H   0  0  0  0  0  0  0  0  0  0  0  0
   28.4330   12.4070   20.4150 H   0  0  0  0  0  0  0  0  0  0  0  0
   30.1550   12.7730   20.4080 H   0  0  0  0  0  0  0  0  0  0  0  0
   31.0670   14.3060   22.0530 H   0  0  0  0  0  0  0  0  0  0  0  0
   29.5210   17.2150   23.7810 H   0  0  0  0  0  0  0  0  0  0  0  0
   31.1140   16.5060   23.6700 H   0  0  0  0  0  0  0  0  0  0  0  0
   30.5610   17.2490   25.9530 H   0  0  0  0  0  0  0  0  0  0  0  0
   30.9320   15.5220   25.8910 H   0  0  0  0  0  0  0  0  0  0  0  0
   25.6320   17.2850   25.0390 H   0  0  0  0  0  0  0  0  0  0  0  0
   26.7040   18.0260   26.2080 H   0  0  0  0  0  0  0  0  0  0  0  0
   25.7910   16.5590   26.6580 H   0  0  0  0  0  0  0  0  0  0  0  0
   25.1070   14.8390   25.0710 H   0  0  0  0  0  0  0  0  0  0  0  0
   26.5410   12.1830   22.0080 H   0  0  0  0  0  0  0  0  0  0  0  0
   25.2080   10.9370   23.3730 H   0  0  0  0  0  0  0  0  0  0  0  0
   22.3470   11.4460   22.7070 H   0  0  0  0  0  0  0  0  0  0  0  0
   23.8620    8.8780   22.1590 H   0  0  0  0  0  0  0  0  0  0  0  0
   22.4150    9.4720   21.3650 H   0  0  0  0  0  0  0  0  0  0  0  0
   22.8910   12.0680   20.3370 H   0  0  0  0  0  0  0  0  0  0  0  0
   24.3390   13.0990   18.6410 H   0  0  0  0  0  0  0  0  0  0  0  0
   26.4920   12.0440   18.0240 H   0  0  0  0  0  0  0  0  0  0  0  0
   27.1830    9.9320   19.1140 H   0  0  0  0  0  0  0  0  0  0  0  0
   25.7540    8.8910   20.8180 H   0  0  0  0  0  0  0  0  0  0  0  0
   23.3330    9.2350   24.5800 H   0  0  0  0  0  0  0  0  0  0  0  0
   20.6670    9.6130   24.1570 H   0  0  0  0  0  0  0  0  0  0  0  0
   22.0920   11.8590   25.1510 H   0  0  0  0  0  0  0  0  0  0  0  0
   22.8460   10.7190   26.2560 H   0  0  0  0  0  0  0  0  0  0  0  0
   20.7060    9.3600   26.1450 H   0  0  0  0  0  0  0  0  0  0  0  0
   18.3440    9.6310   25.3140 H   0  0  0  0  0  0  0  0  0  0  0  0
   16.4230   11.1250   25.0100 H   0  0  0  0  0  0  0  0  0  0  0  0
   16.6310   13.5480   25.4860 H   0  0  0  0  0  0  0  0  0  0  0  0
   18.7820   14.4380   26.3400 H   0  0  0  0  0  0  0  0  0  0  0  0
   20.7130   12.9610   26.6120 H   0  0  0  0  0  0  0  0  0  0  0  0
  1  2  1  0  0  0  0
  1 40  1  0  0  0  0
  1 41  1  0  0  0  0
  1 42  1  0  0  0  0
  2  3  1  0  0  0  0
  2 43  1  0  0  0  0
  2 44  1  0  0  0  0
  3  4  1  0  0  0  0
  3 17  1  0  0  0  0
  4  5  2  0  0  0  0
  4 45  1  0  0  0  0
  5  6  1  0  0  0  0
  5 18  1  0  0  0  0
  6  7  1  0  0  0  0
  6 46  1  0  0  0  0
  6 47  1  0  0  0  0
  7  8  1  0  0  0  0
  7 48  1  0  0  0  0
  7 49  1  0  0  0  0
  8  9  2  0  0  0  0
  8 10  2  0  0  0  0
  8 11  1  0  0  0  0
 11 12  1  0  0  0  0
 11 13  1  0  0  0  0
 12 50  1  0  0  0  0
 12 51  1  0  0  0  0
 12 52  1  0  0  0  0
 13 14  1  0  0  0  0
 13 18  2  0  0  0  0
 14 15  2  0  0  0  0
 14 53  1  0  0  0  0
 15 16  1  0  0  0  0
 15 19  1  0  0  0  0
 16 17  2  0  0  0  0
 16 54  1  0  0  0  0
 17 18  1  0  0  0  0
 19 20  2  0  0  0  0
 19 21  1  0  0  0  0
 21 22  1  0  0  0  0
 21 55  1  0  0  0  0
 22 23  1  0  0  0  0
 22 30  1  0  0  0  0
 22 56  1  0  0  0  0
 23 24  1  0  0  0  0
 23 57  1  0  0  0  0
 23 58  1  0  0  0  0
 24 25  1  0  0  0  0
 24 29  2  0  0  0  0
 25 26  2  0  0  0  0
 25 59  1  0  0  0  0
 26 27  1  0  0  0  0
 26 60  1  0  0  0  0
 27 28  2  0  0  0  0
 27 61  1  0  0  0  0
 28 29  1  0  0  0  0
 28 62  1  0  0  0  0
 29 63  1  0  0  0  0
 30 31  1  0  0  0  0
 30 32  1  0  0  0  0
 30 64  1  0  0  0  0
 31 65  1  0  0  0  0
 32 33  1  0  0  0  0
 32 66  1  0  0  0  0
 32 67  1  0  0  0  0
 33 34  1  0  0  0  0
 33 68  1  0  0  0  0
 34 35  1  0  0  0  0
 34 39  2  0  0  0  0
 35 36  2  0  0  0  0
 35 69  1  0  0  0  0
 36 37  1  0  0  0  0
 36 70  1  0  0  0  0
 37 38  2  0  0  0  0
 37 71  1  0  0  0  0
 38 39  1  0  0  0  0
 38 72  1  0  0  0  0
 39 73  1  0  0  0  0
M  END
>  <PARENT_CMPD_ID>
CHEMBL560151

>  <STANDARD_TYPE>
IC50

>  <RELATION>
=

>  <STANDARD_VALUE>
5

>  <STANDARD_UNITS>
nM

>  <COMPOUND_KEY>
28

>  <PUBMED_ID>
19406640

>  <JOURNAL>
Bioorg. Med. Chem. Lett.

>  <YEAR>
2009

>  <VOLUME>
19

>  <FIRST_PAGE>
3674

>  <Company>
GSK

>  <idx>
330

>  <Model>
Valid

>  <target>
8.3010302

>  <des_pred_mlr>
7.16819

>  <RF_Canvas>
7.7452135

>  <DNN_Canvas>
7.5012746

>  <pred_CoMFA>
7.0781999

>  <pred_COMSIA>
6.8168001

>  <pred_abm5>
6.9554

>  <pred_ff8>
6.8422804

>  <pred_gau6>
7.4228282

>  <CID>
BACE_330

>  <active>
1

>  <des_class_bayes>
1

>  <maacs_class_bayes>
1

>  <radial_class_bayes>
1

>  <dend_class_bayes>
1

>  <molprint_class_bayes>
1

>  <RF_canvas>
1

>  <DNN_canvas>
1

$$$$
CHEMBL541757
  MOE2015           3D

 91 94  0  0  1  0  0  0  0  0999 V2000
   29.6070   11.1570   21.3840 C   0  0  0  0  0  0  0  0  0  0  0  0
   29.4050   12.5810   20.9050 C   0  0  0  0  0  0  0  0  0  0  0  0
   29.1460   13.5200   22.0260 C   0  0  0  0  0  0  0  0  0  0  0  0
   30.0680   14.3400   22.6290 C   0  0  0  0  0  0  0  0  0  0  0  0
   29.4760   14.9350   23.7020 N   0  0  0  0  0  0  0  0  0  0  0  0
   30.1920   15.7350   24.6780 C   0  0  0  0  0  0  0  0  0  0  0  0
   29.5390   17.0470   24.9880 C   0  0  0  0  0  0  0  0  0  0  0  0
   28.1440   16.9820   26.1020 S   0  0  0  0  0  0  0  0  0  0  0  0
   27.2040   17.9870   25.6500 O   0  0  0  0  0  0  0  0  0  0  0  0
   28.6250   17.0190   27.4680 O   0  0  0  0  0  0  0  0  0  0  0  0
   27.4210   15.4940   25.9160 N   0  0  0  0  0  0  0  0  0  0  0  0
   27.7560   14.4590   26.9280 C   0  0  0  0  0  0  0  0  0  0  0  0
   27.1280   14.9840   24.6260 C   0  0  0  0  0  0  0  0  0  0  0  0
   25.8620   14.4240   24.4590 C   0  0  0  0  0  0  0  0  0  0  0  0
   25.6300   13.4890   23.4690 C   0  0  0  0  0  0  0  0  0  0  0  0
   26.6420   13.1400   22.5760 C   0  0  0  0  0  0  0  0  0  0  0  0
   27.9170   13.7130   22.7090 C   0  0  0  0  0  0  0  0  0  0  0  0
   28.1390   14.6320   23.7290 C   0  0  0  0  0  0  0  0  0  0  0  0
   24.3100   12.8220   23.4150 C   0  0  0  0  0  0  0  0  0  0  0  0
   23.2720   13.4540   23.5460 O   0  0  0  0  0  0  0  0  0  0  0  0
   24.3500   11.4640   23.1830 N   0  0  0  0  0  0  0  0  0  0  0  0
   23.1590   10.6820   22.8660 C   0  0  3  0  0  0  0  0  0  0  0  0
   23.4560    9.7410   21.6790 C   0  0  0  0  0  0  0  0  0  0  0  0
   24.2920   10.3840   20.6010 C   0  0  0  0  0  0  0  0  0  0  0  0
   25.5200    9.8290   20.2430 C   0  0  0  0  0  0  0  0  0  0  0  0
   26.3280   10.4530   19.3010 C   0  0  0  0  0  0  0  0  0  0  0  0
   25.9170   11.6360   18.7090 C   0  0  0  0  0  0  0  0  0  0  0  0
   24.6930   12.1900   19.0470 C   0  0  0  0  0  0  0  0  0  0  0  0
   23.8790   11.5630   19.9800 C   0  0  0  0  0  0  0  0  0  0  0  0
   22.6320    9.9290   24.1050 C   0  0  3  0  0  0  0  0  0  0  0  0
   21.4650    9.1520   23.8000 O   0  0  0  0  0  0  0  0  0  0  0  0
   22.2370   10.8920   25.2200 C   0  0  0  0  0  0  0  0  0  0  0  0
   21.3310   10.1430   26.1670 N   0  3  0  0  0  0  0  0  0  0  0  0
   20.2970   10.9580   26.9060 C   0  0  0  0  0  0  0  0  0  0  0  0
   20.9770   12.1670   27.5490 C   0  0  0  0  0  0  0  0  0  0  0  0
   19.7430   10.0550   28.0130 C   0  0  0  0  0  0  0  0  0  0  0  0
   19.1770   11.2840   25.8990 C   0  0  0  0  0  0  0  0  0  0  0  0
   18.4330   12.5780   26.1630 C   0  0  0  0  0  0  0  0  0  0  0  0
   17.3440   12.7450   25.1140 C   0  0  0  0  0  0  0  0  0  0  0  0
   16.7430   14.1460   25.1180 C   0  0  0  0  0  0  0  0  0  0  0  0
   16.0940   14.4990   26.4550 C   0  0  0  0  0  0  0  0  0  0  0  0
   15.7130   14.2630   23.9940 C   0  0  0  0  0  0  0  0  0  0  0  0
   29.8080   10.4960   20.5350 H   0  0  0  0  0  0  0  0  0  0  0  0
   28.7200   10.7780   21.9030 H   0  0  0  0  0  0  0  0  0  0  0  0
   30.4530   11.0880   22.0760 H   0  0  0  0  0  0  0  0  0  0  0  0
   28.5730   12.6160   20.1930 H   0  0  0  0  0  0  0  0  0  0  0  0
   30.2960   12.9020   20.3510 H   0  0  0  0  0  0  0  0  0  0  0  0
   31.1200   14.4830   22.4150 H   0  0  0  0  0  0  0  0  0  0  0  0
   30.3390   15.1150   25.5660 H   0  0  0  0  0  0  0  0  0  0  0  0
   31.1860   15.9320   24.2570 H   0  0  0  0  0  0  0  0  0  0  0  0
   29.1930   17.5360   24.0710 H   0  0  0  0  0  0  0  0  0  0  0  0
   30.2600   17.7190   25.4680 H   0  0  0  0  0  0  0  0  0  0  0  0
   27.2350   13.5160   26.7280 H   0  0  0  0  0  0  0  0  0  0  0  0
   27.4300   14.7890   27.9190 H   0  0  0  0  0  0  0  0  0  0  0  0
   28.8290   14.2490   26.9480 H   0  0  0  0  0  0  0  0  0  0  0  0
   25.0820   14.6510   25.1840 H   0  0  0  0  0  0  0  0  0  0  0  0
   26.4630   12.4220   21.7820 H   0  0  0  0  0  0  0  0  0  0  0  0
   25.2470   10.9880   23.2010 H   0  0  0  0  0  0  0  0  0  0  0  0
   22.3740   11.3750   22.5330 H   0  0  0  0  0  0  0  0  0  0  0  0
   23.9780    8.8510   22.0540 H   0  0  0  0  0  0  0  0  0  0  0  0
   22.5190    9.3830   21.2330 H   0  0  0  0  0  0  0  0  0  0  0  0
   25.8680    8.9060   20.7000 H   0  0  0  0  0  0  0  0  0  0  0  0
   27.2840   10.0130   19.0300 H   0  0  0  0  0  0  0  0  0  0  0  0
   26.5490   12.1240   17.9710 H   0  0  0  0  0  0  0  0  0  0  0  0
   24.3630   13.1110   18.5720 H   0  0  0  0  0  0  0  0  0  0  0  0
   22.9200   12.0130   20.2260 H   0  0  0  0  0  0  0  0  0  0  0  0
   23.3930    9.2350   24.4840 H   0  0  0  0  0  0  0  0  0  0  0  0
   21.7110    8.4570   23.1610 H   0  0  0  0  0  0  0  0  0  0  0  0
   21.6690   11.7330   24.8170 H   0  0  0  0  0  0  0  0  0  0  0  0
   23.0940   11.2600   25.7920 H   0  0  0  0  0  0  0  0  0  0  0  0
   21.9010    9.5830   26.8130 H   0  0  0  0  0  0  0  0  0  0  0  0
   20.8590    9.4550   25.5430 H   0  0  0  0  0  0  0  0  0  0  0  0
   20.2960   12.6940   28.2270 H   0  0  0  0  0  0  0  0  0  0  0  0
   21.3250   12.8940   26.8080 H   0  0  0  0  0  0  0  0  0  0  0  0
   21.8460   11.8620   28.1440 H   0  0  0  0  0  0  0  0  0  0  0  0
   18.9460   10.5600   28.5700 H   0  0  0  0  0  0  0  0  0  0  0  0
   20.5230    9.7770   28.7320 H   0  0  0  0  0  0  0  0  0  0  0  0
   19.3280    9.1260   27.6060 H   0  0  0  0  0  0  0  0  0  0  0  0
   19.5800   11.3460   24.8810 H   0  0  0  0  0  0  0  0  0  0  0  0
   18.4610   10.4510   25.8610 H   0  0  0  0  0  0  0  0  0  0  0  0
   17.9960   12.5580   27.1670 H   0  0  0  0  0  0  0  0  0  0  0  0
   19.1200   13.4290   26.1080 H   0  0  0  0  0  0  0  0  0  0  0  0
   16.5600   11.9940   25.2770 H   0  0  0  0  0  0  0  0  0  0  0  0
   17.7610   12.5500   24.1170 H   0  0  0  0  0  0  0  0  0  0  0  0
   17.5370   14.8770   24.9210 H   0  0  0  0  0  0  0  0  0  0  0  0
   15.3400   13.7570   26.7400 H   0  0  0  0  0  0  0  0  0  0  0  0
   15.6010   15.4760   26.4010 H   0  0  0  0  0  0  0  0  0  0  0  0
   16.8360   14.5580   27.2570 H   0  0  0  0  0  0  0  0  0  0  0  0
   14.8840   13.5610   24.1380 H   0  0  0  0  0  0  0  0  0  0  0  0
   16.1710   14.0540   23.0220 H   0  0  0  0  0  0  0  0  0  0  0  0
   15.2950   15.2750   23.9530 H   0  0  0  0  0  0  0  0  0  0  0  0
  1  2  1  0  0  0  0
  1 43  1  0  0  0  0
  1 44  1  0  0  0  0
  1 45  1  0  0  0  0
  2  3  1  0  0  0  0
  2 46  1  0  0  0  0
  2 47  1  0  0  0  0
  3  4  2  0  0  0  0
  3 17  1  0  0  0  0
  4  5  1  0  0  0  0
  4 48  1  0  0  0  0
  5  6  1  0  0  0  0
  5 18  1  0  0  0  0
  6  7  1  0  0  0  0
  6 49  1  0  0  0  0
  6 50  1  0  0  0  0
  7  8  1  0  0  0  0
  7 51  1  0  0  0  0
  7 52  1  0  0  0  0
  8  9  2  0  0  0  0
  8 10  2  0  0  0  0
  8 11  1  0  0  0  0
 11 12  1  0  0  0  0
 11 13  1  0  0  0  0
 12 53  1  0  0  0  0
 12 54  1  0  0  0  0
 12 55  1  0  0  0  0
 13 14  1  0  0  0  0
 13 18  2  0  0  0  0
 14 15  2  0  0  0  0
 14 56  1  0  0  0  0
 15 16  1  0  0  0  0
 15 19  1  0  0  0  0
 16 17  2  0  0  0  0
 16 57  1  0  0  0  0
 17 18  1  0  0  0  0
 19 20  2  0  0  0  0
 19 21  1  0  0  0  0
 21 22  1  0  0  0  0
 21 58  1  0  0  0  0
 22 23  1  0  0  0  0
 22 30  1  0  0  0  0
 22 59  1  0  0  0  0
 23 24  1  0  0  0  0
 23 60  1  0  0  0  0
 23 61  1  0  0  0  0
 24 25  1  0  0  0  0
 24 29  2  0  0  0  0
 25 26  2  0  0  0  0
 25 62  1  0  0  0  0
 26 27  1  0  0  0  0
 26 63  1  0  0  0  0
 27 28  2  0  0  0  0
 27 64  1  0  0  0  0
 28 29  1  0  0  0  0
 28 65  1  0  0  0  0
 29 66  1  0  0  0  0
 30 31  1  0  0  0  0
 30 32  1  0  0  0  0
 30 67  1  0  0  0  0
 31 68  1  0  0  0  0
 32 33  1  0  0  0  0
 32 69  1  0  0  0  0
 32 70  1  0  0  0  0
 33 34  1  0  0  0  0
 33 71  1  0  0  0  0
 33 72  1  0  0  0  0
 34 35  1  0  0  0  0
 34 36  1  0  0  0  0
 34 37  1  0  0  0  0
 35 73  1  0  0  0  0
 35 74  1  0  0  0  0
 35 75  1  0  0  0  0
 36 76  1  0  0  0  0
 36 77  1  0  0  0  0
 36 78  1  0  0  0  0
 37 38  1  0  0  0  0
 37 79  1  0  0  0  0
 37 80  1  0  0  0  0
 38 39  1  0  0  0  0
 38 81  1  0  0  0  0
 38 82  1  0  0  0  0
 39 40  1  0  0  0  0
 39 83  1  0  0  0  0
 39 84  1  0  0  0  0
 40 41  1  0  0  0  0
 40 42  1  0  0  0  0
 40 85  1  0  0  0  0
 41 86  1  0  0  0  0
 41 87  1  0  0  0  0
 41 88  1  0  0  0  0
 42 89  1  0  0  0  0
 42 90  1  0  0  0  0
 42 91  1  0  0  0  0
M  CHG  1  33   1
M  END
>  <PARENT_CMPD_ID>
CHEMBL541757

>  <STANDARD_TYPE>
IC50

>  <RELATION>
=

>  <STANDARD_VALUE>
5

>  <STANDARD_UNITS>
nM

>  <COMPOUND_KEY>
24

>  <PUBMED_ID>
19477642

>  <JOURNAL>
Bioorg. Med. Chem. Lett.

>  <YEAR>
2009

>  <VOLUME>
19

>  <FIRST_PAGE>
3669

>  <Company>
GSK

>  <idx>
331

>  <Model>
Valid

>  <target>
8.3010302

>  <des_pred_mlr>
7.5121999

>  <RF_Canvas>
8.0196419

>  <DNN_Canvas>
7.7790446

>  <pred_CoMFA>
7.9503999

>  <pred_COMSIA>
7.5261002

>  <pred_abm5>
6.8058505

>  <pred_ff8>
6.9121442

>  <pred_gau6>
6.5518961

>  <CID>
BACE_331

>  <active>
1

>  <des_class_bayes>
0

>  <maacs_class_bayes>
1

>  <radial_class_bayes>
1

>  <dend_class_bayes>
1

>  <molprint_class_bayes>
1

>  <RF_canvas>
1

>  <DNN_canvas>
1

$$$$
CHEMBL562555
  MOE2015           3D

 81 85  0  0  1  0  0  0  0  0999 V2000
   25.6560   17.5720   26.2180 C   0  0  0  0  0  0  0  0  0  0  0  0
   26.8260   17.4350   25.2690 C   0  0  0  0  0  0  0  0  0  0  0  0
   27.4530   16.1310   25.4380 N   0  0  0  0  0  0  0  0  0  0  0  0
   27.1850   15.0980   24.5090 C   0  0  0  0  0  0  0  0  0  0  0  0
   25.9900   14.3970   24.5890 C   0  0  0  0  0  0  0  0  0  0  0  0
   25.7900   13.2800   23.7960 C   0  0  0  0  0  0  0  0  0  0  0  0
   26.7530   12.8680   22.8710 C   0  0  0  0  0  0  0  0  0  0  0  0
   27.9800   13.5460   22.8150 C   0  0  0  0  0  0  0  0  0  0  0  0
   29.2150   13.2960   22.1600 C   0  0  0  0  0  0  0  0  0  0  0  0
   29.5430   12.1210   21.3090 C   0  0  0  0  0  0  0  0  0  0  0  0
   29.4670   12.4510   19.8380 C   0  0  0  0  0  0  0  0  0  0  0  0
   30.0760   14.3070   22.5260 C   0  0  0  0  0  0  0  0  0  0  0  0
   29.4290   15.1280   23.3960 N   0  0  0  0  0  0  0  0  0  0  0  0
   29.9770   16.3250   23.9940 C   0  0  0  0  0  0  0  0  0  0  0  0
   30.1910   16.2890   25.4930 C   0  0  0  0  0  0  0  0  0  0  0  0
   28.7520   15.9050   26.4830 S   0  0  0  0  0  0  0  0  0  0  0  0
   28.8000   14.4970   26.8160 O   0  0  0  0  0  0  0  0  0  0  0  0
   28.6140   16.8830   27.5410 O   0  0  0  0  0  0  0  0  0  0  0  0
   28.1590   14.6650   23.6140 C   0  0  0  0  0  0  0  0  0  0  0  0
   24.6630   12.3720   24.1150 C   0  0  0  0  0  0  0  0  0  0  0  0
   24.4410   12.0640   25.2760 O   0  0  0  0  0  0  0  0  0  0  0  0
   23.9770   11.9220   23.0320 N   0  0  0  0  0  0  0  0  0  0  0  0
   22.9630   10.8710   22.8920 C   0  0  1  0  0  0  0  0  0  0  0  0
   23.4700    9.8130   21.8640 C   0  0  0  0  0  0  0  0  0  0  0  0
   24.2580   10.3790   20.7040 C   0  0  0  0  0  0  0  0  0  0  0  0
   25.5120    9.8510   20.3950 C   0  0  0  0  0  0  0  0  0  0  0  0
   26.3010   10.4280   19.4080 C   0  0  0  0  0  0  0  0  0  0  0  0
   25.8480   11.5410   18.7190 C   0  0  0  0  0  0  0  0  0  0  0  0
   24.5910   12.0550   18.9910 C   0  0  0  0  0  0  0  0  0  0  0  0
   23.7880   11.4590   19.9560 C   0  0  0  0  0  0  0  0  0  0  0  0
   22.4330   10.1670   24.1810 C   0  0  2  0  0  0  0  0  0  0  0  0
   21.4020    9.2110   23.8330 O   0  0  0  0  0  0  0  0  0  0  0  0
   21.6890   11.1530   25.1020 C   0  0  0  0  0  0  0  0  0  0  0  0
   20.7680   10.3870   26.0320 N   0  3  0  0  0  0  0  0  0  0  0  0
   19.3560   10.9120   26.2090 C   0  0  0  0  0  0  0  0  0  0  0  0
   18.5250   10.4580   25.0100 C   0  0  0  0  0  0  0  0  0  0  0  0
   17.1570   11.1030   24.9910 C   0  0  0  0  0  0  0  0  0  0  0  0
   17.3320   12.5090   25.0320 O   0  0  0  0  0  0  0  0  0  0  0  0
   17.8710   12.9380   26.2800 C   0  0  0  0  0  0  0  0  0  0  0  0
   19.2930   12.4190   26.4380 C   0  0  0  0  0  0  0  0  0  0  0  0
   25.2240   18.5750   26.1400 H   0  0  0  0  0  0  0  0  0  0  0  0
   25.9550   17.4150   27.2590 H   0  0  0  0  0  0  0  0  0  0  0  0
   24.8630   16.8540   25.9880 H   0  0  0  0  0  0  0  0  0  0  0  0
   27.5540   18.2320   25.4570 H   0  0  0  0  0  0  0  0  0  0  0  0
   26.4890   17.5740   24.2350 H   0  0  0  0  0  0  0  0  0  0  0  0
   25.2620   14.6550   25.3530 H   0  0  0  0  0  0  0  0  0  0  0  0
   26.6240   11.9530   22.3010 H   0  0  0  0  0  0  0  0  0  0  0  0
   30.5520   11.7650   21.5500 H   0  0  0  0  0  0  0  0  0  0  0  0
   28.8650   11.2890   21.5310 H   0  0  0  0  0  0  0  0  0  0  0  0
   30.2070   13.2110   19.5630 H   0  0  0  0  0  0  0  0  0  0  0  0
   28.4810   12.8400   19.5650 H   0  0  0  0  0  0  0  0  0  0  0  0
   29.6630   11.5590   19.2350 H   0  0  0  0  0  0  0  0  0  0  0  0
   31.1070   14.4820   22.2460 H   0  0  0  0  0  0  0  0  0  0  0  0
   30.9360   16.5290   23.5030 H   0  0  0  0  0  0  0  0  0  0  0  0
   29.3130   17.1510   23.7120 H   0  0  0  0  0  0  0  0  0  0  0  0
   30.5510   17.2670   25.8280 H   0  0  0  0  0  0  0  0  0  0  0  0
   30.9510   15.5430   25.7530 H   0  0  0  0  0  0  0  0  0  0  0  0
   24.2150   12.3960   22.1660 H   0  0  0  0  0  0  0  0  0  0  0  0
   22.1130   11.3780   22.4150 H   0  0  0  0  0  0  0  0  0  0  0  0
   24.1040    9.0950   22.4020 H   0  0  0  0  0  0  0  0  0  0  0  0
   22.6260    9.2400   21.4610 H   0  0  0  0  0  0  0  0  0  0  0  0
   25.9010    8.9930   20.9400 H   0  0  0  0  0  0  0  0  0  0  0  0
   27.2810   10.0130   19.1870 H   0  0  0  0  0  0  0  0  0  0  0  0
   26.4700   11.9980   17.9540 H   0  0  0  0  0  0  0  0  0  0  0  0
   24.2230   12.9120   18.4320 H   0  0  0  0  0  0  0  0  0  0  0  0
   22.7970   11.8700   20.1330 H   0  0  0  0  0  0  0  0  0  0  0  0
   23.2230    9.6370   24.7220 H   0  0  0  0  0  0  0  0  0  0  0  0
   20.9600    9.4870   23.0080 H   0  0  0  0  0  0  0  0  0  0  0  0
   21.0570   11.7870   24.4750 H   0  0  0  0  0  0  0  0  0  0  0  0
   22.3030   11.7840   25.7380 H   0  0  0  0  0  0  0  0  0  0  0  0
   21.2370   10.2650   26.9390 H   0  0  0  0  0  0  0  0  0  0  0  0
   20.7250    9.4410   25.6030 H   0  0  0  0  0  0  0  0  0  0  0  0
   18.9770   10.4000   27.1020 H   0  0  0  0  0  0  0  0  0  0  0  0
   18.4240    9.3670   25.0040 H   0  0  0  0  0  0  0  0  0  0  0  0
   19.0380   10.7370   24.0800 H   0  0  0  0  0  0  0  0  0  0  0  0
   16.5340   10.7690   25.8290 H   0  0  0  0  0  0  0  0  0  0  0  0
   16.6330   10.8500   24.0640 H   0  0  0  0  0  0  0  0  0  0  0  0
   17.8710   14.0330   26.2890 H   0  0  0  0  0  0  0  0  0  0  0  0
   17.2270   12.6020   27.1010 H   0  0  0  0  0  0  0  0  0  0  0  0
   19.9080   12.9590   25.7130 H   0  0  0  0  0  0  0  0  0  0  0  0
   19.6820   12.6720   27.4310 H   0  0  0  0  0  0  0  0  0  0  0  0
  1  2  1  0  0  0  0
  1 41  1  0  0  0  0
  1 42  1  0  0  0  0
  1 43  1  0  0  0  0
  2  3  1  0  0  0  0
  2 44  1  0  0  0  0
  2 45  1  0  0  0  0
  3  4  1  0  0  0  0
  3 16  1  0  0  0  0
  4  5  1  0  0  0  0
  4 19  2  0  0  0  0
  5  6  2  0  0  0  0
  5 46  1  0  0  0  0
  6  7  1  0  0  0  0
  6 20  1  0  0  0  0
  7  8  2  0  0  0  0
  7 47  1  0  0  0  0
  8  9  1  0  0  0  0
  8 19  1  0  0  0  0
  9 10  1  0  0  0  0
  9 12  2  0  0  0  0
 10 11  1  0  0  0  0
 10 48  1  0  0  0  0
 10 49  1  0  0  0  0
 11 50  1  0  0  0  0
 11 51  1  0  0  0  0
 11 52  1  0  0  0  0
 12 13  1  0  0  0  0
 12 53  1  0  0  0  0
 13 14  1  0  0  0  0
 13 19  1  0  0  0  0
 14 15  1  0  0  0  0
 14 54  1  0  0  0  0
 14 55  1  0  0  0  0
 15 16  1  0  0  0  0
 15 56  1  0  0  0  0
 15 57  1  0  0  0  0
 16 17  2  0  0  0  0
 16 18  2  0  0  0  0
 20 21  2  0  0  0  0
 20 22  1  0  0  0  0
 22 23  1  0  0  0  0
 22 58  1  0  0  0  0
 23 24  1  0  0  0  0
 23 31  1  0  0  0  0
 23 59  1  0  0  0  0
 24 25  1  0  0  0  0
 24 60  1  0  0  0  0
 24 61  1  0  0  0  0
 25 26  1  0  0  0  0
 25 30  2  0  0  0  0
 26 27  2  0  0  0  0
 26 62  1  0  0  0  0
 27 28  1  0  0  0  0
 27 63  1  0  0  0  0
 28 29  2  0  0  0  0
 28 64  1  0  0  0  0
 29 30  1  0  0  0  0
 29 65  1  0  0  0  0
 30 66  1  0  0  0  0
 31 32  1  0  0  0  0
 31 33  1  0  0  0  0
 31 67  1  0  0  0  0
 32 68  1  0  0  0  0
 33 34  1  0  0  0  0
 33 69  1  0  0  0  0
 33 70  1  0  0  0  0
 34 35  1  0  0  0  0
 34 71  1  0  0  0  0
 34 72  1  0  0  0  0
 35 36  1  0  0  0  0
 35 40  1  0  0  0  0
 35 73  1  0  0  0  0
 36 37  1  0  0  0  0
 36 74  1  0  0  0  0
 36 75  1  0  0  0  0
 37 38  1  0  0  0  0
 37 76  1  0  0  0  0
 37 77  1  0  0  0  0
 38 39  1  0  0  0  0
 39 40  1  0  0  0  0
 39 78  1  0  0  0  0
 39 79  1  0  0  0  0
 40 80  1  0  0  0  0
 40 81  1  0  0  0  0
M  CHG  1  34   1
M  END
>  <PARENT_CMPD_ID>
CHEMBL562555

>  <STANDARD_TYPE>
IC50

>  <RELATION>
=

>  <STANDARD_VALUE>
5

>  <STANDARD_UNITS>
nM

>  <COMPOUND_KEY>
35

>  <PUBMED_ID>
19477642

>  <JOURNAL>
Bioorg. Med. Chem. Lett.

>  <YEAR>
2009

>  <VOLUME>
19

>  <FIRST_PAGE>
3669

>  <Company>
GSK

>  <idx>
332

>  <Model>
Valid

>  <target>
8.3010302

>  <des_pred_mlr>
6.6395102

>  <RF_Canvas>
7.679091

>  <DNN_Canvas>
7.7668958

>  <pred_CoMFA>
7.5689998

>  <pred_COMSIA>
7.4169002

>  <pred_abm5>
6.8747344

>  <pred_ff8>
6.8811612

>  <pred_gau6>
6.7186928

>  <CID>
BACE_332

>  <active>
1

>  <des_class_bayes>
1

>  <maacs_class_bayes>
1

>  <radial_class_bayes>
1

>  <dend_class_bayes>
1

>  <molprint_class_bayes>
1

>  <RF_canvas>
1

>  <DNN_canvas>
1

$$$$
CHEMBL1210361
  MOE2015           3D

 85 88  0  0  1  0  0  0  0  0999 V2000
   29.0640   12.1760   21.0100 C   0  0  0  0  0  0  0  0  0  0  0  0
   29.2690   13.1540   22.0680 C   0  0  0  0  0  0  0  0  0  0  0  0
   29.6610   14.0610   21.6090 H   0  0  0  0  0  0  0  0  0  0  0  0
   30.2920   12.5900   23.0210 C   0  0  0  0  0  0  0  0  0  0  0  0
   31.1860   12.3030   22.4670 H   0  0  0  0  0  0  0  0  0  0  0  0
   29.8790   11.7150   23.5220 H   0  0  0  0  0  0  0  0  0  0  0  0
   30.5520   13.3450   23.7640 H   0  0  0  0  0  0  0  0  0  0  0  0
   28.1260   13.5140   22.8260 C   0  0  0  0  0  0  0  0  0  0  0  0
   28.2960   14.5110   23.7770 C   0  0  0  0  0  0  0  0  0  0  0  0
   27.2450   14.9490   24.5510 C   0  0  0  0  0  0  0  0  0  0  0  0
   25.9890   14.4010   24.4060 C   0  0  0  0  0  0  0  0  0  0  0  0
   25.8120   13.4090   23.4600 C   0  0  0  0  0  0  0  0  0  0  0  0
   26.8590   12.9700   22.6640 C   0  0  0  0  0  0  0  0  0  0  0  0
   24.4670   12.8370   23.2970 C   0  0  0  0  0  0  0  0  0  0  0  0
   23.4860   13.5710   23.2770 O   0  0  0  0  0  0  0  0  0  0  0  0
   24.4130   11.4770   23.1530 N   0  0  0  0  0  0  0  0  0  0  0  0
   23.1870   10.8210   22.7430 C   0  0  3  0  0  0  0  0  0  0  0  0
   23.5020    9.8670   21.5980 C   0  0  0  0  0  0  0  0  0  0  0  0
   24.3520   10.4960   20.5300 C   0  0  0  0  0  0  0  0  0  0  0  0
   23.9740   11.6980   19.9550 C   0  0  0  0  0  0  0  0  0  0  0  0
   24.7830   12.2580   18.9800 C   0  0  0  0  0  0  0  0  0  0  0  0
   25.9490   11.6360   18.5770 C   0  0  0  0  0  0  0  0  0  0  0  0
   26.3280   10.4440   19.1500 C   0  0  0  0  0  0  0  0  0  0  0  0
   25.5260    9.8760   20.1250 C   0  0  0  0  0  0  0  0  0  0  0  0
   22.5430   10.1470   23.9570 C   0  0  3  0  0  0  0  0  0  0  0  0
   21.4100    9.3600   23.5880 O   0  0  0  0  0  0  0  0  0  0  0  0
   21.9980   11.1450   24.9750 C   0  0  0  0  0  0  0  0  0  0  0  0
   21.3680   10.3940   26.0670 N   0  3  0  0  0  0  0  0  0  0  0  0
   20.3480   11.1510   26.8210 C   0  0  0  0  0  0  0  0  0  0  0  0
   27.4120   15.9900   25.5160 N   0  0  0  0  0  0  0  0  0  0  0  0
   26.5810   17.1510   25.3650 C   0  0  0  0  0  0  0  0  0  0  0  0
   25.5980   17.3940   26.2960 C   0  0  0  0  0  0  0  0  0  0  0  0
   24.7960   18.5090   26.1610 C   0  0  0  0  0  0  0  0  0  0  0  0
   24.9840   19.3540   25.0900 C   0  0  0  0  0  0  0  0  0  0  0  0
   25.9650   19.0960   24.1530 C   0  0  0  0  0  0  0  0  0  0  0  0
   26.7820   17.9820   24.2880 C   0  0  0  0  0  0  0  0  0  0  0  0
   28.7460   16.1330   26.5400 S   0  0  0  0  0  0  0  0  0  0  0  0
   29.8550   17.1970   25.6590 C   0  0  0  0  0  0  0  0  0  0  0  0
   29.3320   14.8140   26.6470 O   0  0  0  0  0  0  0  0  0  0  0  0
   28.3110   16.8350   27.7370 O   0  0  0  0  0  0  0  0  0  0  0  0
   28.0500   12.2590   20.6200 H   0  0  0  0  0  0  0  0  0  0  0  0
   29.7780   12.3460   20.2040 H   0  0  0  0  0  0  0  0  0  0  0  0
   29.2130   11.1770   21.4190 H   0  0  0  0  0  0  0  0  0  0  0  0
   29.2730   14.9520   23.9120 H   0  0  0  0  0  0  0  0  0  0  0  0
   25.1640   14.7380   25.0160 H   0  0  0  0  0  0  0  0  0  0  0  0
   26.6890   12.2060   21.9190 H   0  0  0  0  0  0  0  0  0  0  0  0
   25.2380   10.9230   23.3350 H   0  0  0  0  0  0  0  0  0  0  0  0
   22.4540   11.5340   22.3660 H   0  0  0  0  0  0  0  0  0  0  0  0
   22.5640    9.5410   21.1490 H   0  0  0  0  0  0  0  0  0  0  0  0
   24.0320    9.0030   22.0000 H   0  0  0  0  0  0  0  0  0  0  0  0
   23.0630   12.1910   20.2620 H   0  0  0  0  0  0  0  0  0  0  0  0
   24.4980   13.1960   18.5270 H   0  0  0  0  0  0  0  0  0  0  0  0
   26.5640   12.0860   17.8110 H   0  0  0  0  0  0  0  0  0  0  0  0
   27.2410    9.9570   18.8420 H   0  0  0  0  0  0  0  0  0  0  0  0
   25.8170    8.9390   20.5760 H   0  0  0  0  0  0  0  0  0  0  0  0
   23.3480    9.5480   24.3810 H   0  0  0  0  0  0  0  0  0  0  0  0
   20.7490    9.9550   23.2250 H   0  0  0  0  0  0  0  0  0  0  0  0
   21.2600   11.7910   24.4990 H   0  0  0  0  0  0  0  0  0  0  0  0
   22.8130   11.7520   25.3680 H   0  0  0  0  0  0  0  0  0  0  0  0
   22.0910   10.1090   26.7120 H   0  0  0  0  0  0  0  0  0  0  0  0
   20.9270    9.5750   25.6730 H   0  0  0  0  0  0  0  0  0  0  0  0
   19.8630   10.4660   27.5170 H   0  0  0  0  0  0  0  0  0  0  0  0
   20.8350   11.9810   27.3340 H   0  0  0  0  0  0  0  0  0  0  0  0
   25.4550   16.7180   27.1260 H   0  0  0  0  0  0  0  0  0  0  0  0
   24.0270   18.7170   26.8900 H   0  0  0  0  0  0  0  0  0  0  0  0
   24.3580   20.2270   24.9820 H   0  0  0  0  0  0  0  0  0  0  0  0
   26.0970   19.7620   23.3130 H   0  0  0  0  0  0  0  0  0  0  0  0
   27.5570   17.7730   23.5650 H   0  0  0  0  0  0  0  0  0  0  0  0
   30.1980   16.6950   24.7540 H   0  0  0  0  0  0  0  0  0  0  0  0
   30.7110   17.4330   26.2910 H   0  0  0  0  0  0  0  0  0  0  0  0
   29.3380   18.1180   25.3900 H   0  0  0  0  0  0  0  0  0  0  0  0
   17.4480   12.7400   24.3140 C   0  0  0  0  0  0  0  0  0  0  0  0
   16.6880   13.1560   23.6580 H   0  0  0  0  0  0  0  0  0  0  0  0
   17.5030   11.3630   24.5310 C   0  0  0  0  0  0  0  0  0  0  0  0
   16.7870   10.7070   24.0440 H   0  0  0  0  0  0  0  0  0  0  0  0
   18.4780   10.8290   25.3740 C   0  0  0  0  0  0  0  0  0  0  0  0
   18.5210    9.7570   25.5430 H   0  0  0  0  0  0  0  0  0  0  0  0
   19.3980   11.6720   26.0000 C   0  0  0  0  0  0  0  0  0  0  0  0
   19.3420   13.0490   25.7820 C   0  0  0  0  0  0  0  0  0  0  0  0
   20.0580   13.7050   26.2690 H   0  0  0  0  0  0  0  0  0  0  0  0
   18.3670   13.5830   24.9390 C   0  0  0  0  0  0  0  0  0  0  0  0
   18.3080   15.0500   24.7070 C   0  0  0  0  0  0  0  0  0  0  0  0
   17.2840   15.3330   23.8580 F   0  0  0  0  0  0  0  0  0  0  0  0
   19.4800   15.4700   24.1610 F   0  0  0  0  0  0  0  0  0  0  0  0
   18.1040   15.6880   25.8910 F   0  0  0  0  0  0  0  0  0  0  0  0
  1  2  1  0  0  0  0
  1 41  1  0  0  0  0
  1 42  1  0  0  0  0
  1 43  1  0  0  0  0
  2  3  1  0  0  0  0
  2  4  1  0  0  0  0
  2  8  1  0  0  0  0
  4  5  1  0  0  0  0
  4  6  1  0  0  0  0
  4  7  1  0  0  0  0
  8  9  1  0  0  0  0
  8 13  2  0  0  0  0
  9 10  2  0  0  0  0
  9 44  1  0  0  0  0
 10 11  1  0  0  0  0
 10 30  1  0  0  0  0
 11 12  2  0  0  0  0
 11 45  1  0  0  0  0
 12 13  1  0  0  0  0
 12 14  1  0  0  0  0
 13 46  1  0  0  0  0
 14 15  2  0  0  0  0
 14 16  1  0  0  0  0
 16 17  1  0  0  0  0
 16 47  1  0  0  0  0
 17 18  1  0  0  0  0
 17 25  1  0  0  0  0
 17 48  1  0  0  0  0
 18 19  1  0  0  0  0
 18 49  1  0  0  0  0
 18 50  1  0  0  0  0
 19 20  1  0  0  0  0
 19 24  2  0  0  0  0
 20 21  2  0  0  0  0
 20 51  1  0  0  0  0
 21 22  1  0  0  0  0
 21 52  1  0  0  0  0
 22 23  2  0  0  0  0
 22 53  1  0  0  0  0
 23 24  1  0  0  0  0
 23 54  1  0  0  0  0
 24 55  1  0  0  0  0
 25 26  1  0  0  0  0
 25 27  1  0  0  0  0
 25 56  1  0  0  0  0
 26 57  1  0  0  0  0
 27 28  1  0  0  0  0
 27 58  1  0  0  0  0
 27 59  1  0  0  0  0
 28 29  1  0  0  0  0
 28 60  1  0  0  0  0
 28 61  1  0  0  0  0
 29 62  1  0  0  0  0
 29 63  1  0  0  0  0
 29 78  1  0  0  0  0
 30 31  1  0  0  0  0
 30 37  1  0  0  0  0
 31 32  1  0  0  0  0
 31 36  2  0  0  0  0
 32 33  2  0  0  0  0
 32 64  1  0  0  0  0
 33 34  1  0  0  0  0
 33 65  1  0  0  0  0
 34 35  2  0  0  0  0
 34 66  1  0  0  0  0
 35 36  1  0  0  0  0
 35 67  1  0  0  0  0
 36 68  1  0  0  0  0
 37 38  1  0  0  0  0
 37 39  2  0  0  0  0
 37 40  2  0  0  0  0
 38 69  1  0  0  0  0
 38 70  1  0  0  0  0
 38 71  1  0  0  0  0
 72 73  1  0  0  0  0
 72 74  1  0  0  0  0
 72 81  2  0  0  0  0
 74 75  1  0  0  0  0
 74 76  2  0  0  0  0
 76 77  1  0  0  0  0
 76 78  1  0  0  0  0
 78 79  2  0  0  0  0
 79 80  1  0  0  0  0
 79 81  1  0  0  0  0
 81 82  1  0  0  0  0
 82 83  1  0  0  0  0
 82 84  1  0  0  0  0
 82 85  1  0  0  0  0
M  CHG  1  28   1
M  END
>  <PARENT_CMPD_ID>
CHEMBL1210361

>  <STANDARD_TYPE>
IC50

>  <RELATION>
=

>  <STANDARD_VALUE>
5

>  <STANDARD_UNITS>
nM

>  <COMPOUND_KEY>
43

>  <PUBMED_ID>
20579874

>  <JOURNAL>
Bioorg. Med. Chem. Lett.

>  <YEAR>
2010

>  <VOLUME>
20

>  <FIRST_PAGE>
4639

>  <Company>
GSK

>  <idx>
333

>  <Model>
Valid

>  <target>
8.3010302

>  <des_pred_mlr>
7.8032098

>  <RF_Canvas>
8.1124182

>  <DNN_Canvas>
7.9078813

>  <pred_CoMFA>
7.3336

>  <pred_COMSIA>
7.9224

>  <pred_abm5>
7.5031452

>  <pred_ff8>
7.9270687

>  <pred_gau6>
7.7627521

>  <CID>
BACE_333

>  <active>
1

>  <des_class_bayes>
1

>  <maacs_class_bayes>
1

>  <radial_class_bayes>
1

>  <dend_class_bayes>
1

>  <molprint_class_bayes>
1

>  <RF_canvas>
1

>  <DNN_canvas>
1

$$$$
22928914_8c
  MOE2015           3D

 71 74  0  0  1  0  0  0  0  0999 V2000
   21.0690   13.8470   29.1790 C   0  0  0  0  0  0  0  0  0  0  0  0
   22.1630   13.8620   29.1640 H   0  0  0  0  0  0  0  0  0  0  0  0
   20.7120   14.8830   29.1460 H   0  0  0  0  0  0  0  0  0  0  0  0
   20.4500   13.0270   30.3070 C   0  0  0  0  0  0  0  0  0  0  0  0
   20.0480   13.6010   31.1450 H   0  0  0  0  0  0  0  0  0  0  0  0
   21.1140   12.2490   30.7000 H   0  0  0  0  0  0  0  0  0  0  0  0
   19.4210   12.5050   29.3070 C   0  0  0  0  0  0  0  0  0  0  0  0
   18.4780   13.0640   29.3180 H   0  0  0  0  0  0  0  0  0  0  0  0
   19.1910   11.4400   29.3970 H   0  0  0  0  0  0  0  0  0  0  0  0
   20.3750   12.9130   28.1590 C   0  0  0  0  0  0  0  0  0  0  0  0
   21.2970   11.8420   27.6050 C   0  0  0  0  0  0  0  0  0  0  0  0
   21.8040   11.2840   28.4030 H   0  0  0  0  0  0  0  0  0  0  0  0
   22.0870   12.3400   27.0290 H   0  0  0  0  0  0  0  0  0  0  0  0
   19.7640   13.6270   27.0730 O   0  0  0  0  0  0  0  0  0  0  0  0
   19.1160   12.8800   26.1270 C   0  0  0  0  0  0  0  0  0  0  0  0
   18.2040   13.5630   25.4190 N   0  0  0  0  0  0  0  0  0  0  0  0
   17.5460   12.8880   24.4590 C   0  0  0  0  0  0  0  0  0  0  0  0
   16.8280   13.4850   23.9030 H   0  0  0  0  0  0  0  0  0  0  0  0
   17.7390   11.5450   24.1780 C   0  0  0  0  0  0  0  0  0  0  0  0
   16.9670   10.8660   23.0860 C   0  0  0  0  0  0  0  0  0  0  0  0
   17.5870   10.0640   22.6610 H   0  0  0  0  0  0  0  0  0  0  0  0
   16.8370   11.5800   22.2600 H   0  0  0  0  0  0  0  0  0  0  0  0
   15.5970   10.2920   23.4640 C   0  0  0  0  0  0  0  0  0  0  0  0
   15.1630    9.8790   22.5430 H   0  0  0  0  0  0  0  0  0  0  0  0
   14.6360   11.3480   23.9820 C   0  0  0  0  0  0  0  0  0  0  0  0
   14.5640   12.1900   23.2860 H   0  0  0  0  0  0  0  0  0  0  0  0
   14.9350   11.7340   24.9620 H   0  0  0  0  0  0  0  0  0  0  0  0
   13.6300   10.9290   24.0930 H   0  0  0  0  0  0  0  0  0  0  0  0
   15.7040    9.1480   24.4590 C   0  0  0  0  0  0  0  0  0  0  0  0
   16.3930    8.3770   24.0980 H   0  0  0  0  0  0  0  0  0  0  0  0
   14.7280    8.6740   24.6080 H   0  0  0  0  0  0  0  0  0  0  0  0
   16.0560    9.4880   25.4380 H   0  0  0  0  0  0  0  0  0  0  0  0
   18.6910   10.8700   24.9370 C   0  0  0  0  0  0  0  0  0  0  0  0
   18.8570    9.8120   24.7470 H   0  0  0  0  0  0  0  0  0  0  0  0
   19.4270   11.5460   25.9150 C   0  0  0  0  0  0  0  0  0  0  0  0
   20.4970   10.8750   26.7260 C   0  0  3  0  0  0  0  0  0  0  0  0
   19.9980   10.1470   27.3790 H   0  0  0  0  0  0  0  0  0  0  0  0
   21.4760   10.0560   25.9160 N   0  3  0  0  0  0  0  0  0  0  0  0
   20.9700    9.2950   25.4330 H   0  0  0  0  0  0  0  0  0  0  0  0
   22.1400    9.5790   26.5390 H   0  0  0  0  0  0  0  0  0  0  0  0
   22.2260   10.7860   24.8310 C   0  0  0  0  0  0  0  0  0  0  0  0
   23.0520   11.3160   25.3120 H   0  0  0  0  0  0  0  0  0  0  0  0
   21.5390   11.4970   24.3640 H   0  0  0  0  0  0  0  0  0  0  0  0
   22.7130    9.7620   23.8080 C   0  0  3  0  0  0  0  0  0  0  0  0
   23.3830    9.0430   24.2940 H   0  0  0  0  0  0  0  0  0  0  0  0
   21.5670    9.0340   23.3430 O   0  0  0  0  0  0  0  0  0  0  0  0
   21.1320    9.5320   22.6250 H   0  0  0  0  0  0  0  0  0  0  0  0
   23.4320   10.4510   22.6360 C   0  0  3  0  0  0  0  0  0  0  0  0
   22.7110   11.1470   22.1890 H   0  0  0  0  0  0  0  0  0  0  0  0
   24.6000   11.2180   23.0650 N   0  0  0  0  0  0  0  0  0  0  0  0
   25.4530   10.7250   23.3100 H   0  0  0  0  0  0  0  0  0  0  0  0
   24.5930   12.5950   23.0940 C   0  0  0  0  0  0  0  0  0  0  0  0
   23.5840   13.2610   22.8990 O   0  0  0  0  0  0  0  0  0  0  0  0
   25.9470   13.2080   23.3140 C   0  0  0  0  0  0  0  0  0  0  0  0
   26.5350   12.6100   24.0170 H   0  0  0  0  0  0  0  0  0  0  0  0
   26.4760   13.2650   22.3590 H   0  0  0  0  0  0  0  0  0  0  0  0
   25.8300   14.2130   23.7280 H   0  0  0  0  0  0  0  0  0  0  0  0
   23.8380    9.4470   21.5410 C   0  0  0  0  0  0  0  0  0  0  0  0
   22.9740    8.8630   21.2010 H   0  0  0  0  0  0  0  0  0  0  0  0
   24.5570    8.7240   21.9470 H   0  0  0  0  0  0  0  0  0  0  0  0
   24.4230   10.1540   20.3510 C   0  0  0  0  0  0  0  0  0  0  0  0
   25.7720   10.0100   20.0420 C   0  0  0  0  0  0  0  0  0  0  0  0
   26.4110    9.3510   20.6240 H   0  0  0  0  0  0  0  0  0  0  0  0
   26.3250   10.7210   18.9850 C   0  0  0  0  0  0  0  0  0  0  0  0
   27.3800   10.6100   18.7490 H   0  0  0  0  0  0  0  0  0  0  0  0
   25.5350   11.5800   18.2310 C   0  0  0  0  0  0  0  0  0  0  0  0
   25.9720   12.1380   17.4070 H   0  0  0  0  0  0  0  0  0  0  0  0
   24.1870   11.7220   18.5270 C   0  0  0  0  0  0  0  0  0  0  0  0
   23.5680   12.3910   17.9350 H   0  0  0  0  0  0  0  0  0  0  0  0
   23.6330   11.0060   19.5770 C   0  0  0  0  0  0  0  0  0  0  0  0
   22.5750   11.1320   19.7930 H   0  0  0  0  0  0  0  0  0  0  0  0
  1  2  1  0  0  0  0
  1  3  1  0  0  0  0
  1  4  1  0  0  0  0
  1 10  1  0  0  0  0
  4  5  1  0  0  0  0
  4  6  1  0  0  0  0
  4  7  1  0  0  0  0
  7  8  1  0  0  0  0
  7  9  1  0  0  0  0
  7 10  1  0  0  0  0
 10 11  1  0  0  0  0
 10 14  1  0  0  0  0
 11 12  1  0  0  0  0
 11 13  1  0  0  0  0
 11 36  1  0  0  0  0
 14 15  1  0  0  0  0
 15 16  1  0  0  0  0
 15 35  2  0  0  0  0
 16 17  2  0  0  0  0
 17 18  1  0  0  0  0
 17 19  1  0  0  0  0
 19 20  1  0  0  0  0
 19 33  2  0  0  0  0
 20 21  1  0  0  0  0
 20 22  1  0  0  0  0
 20 23  1  0  0  0  0
 23 24  1  0  0  0  0
 23 25  1  0  0  0  0
 23 29  1  0  0  0  0
 25 26  1  0  0  0  0
 25 27  1  0  0  0  0
 25 28  1  0  0  0  0
 29 30  1  0  0  0  0
 29 31  1  0  0  0  0
 29 32  1  0  0  0  0
 33 34  1  0  0  0  0
 33 35  1  0  0  0  0
 35 36  1  0  0  0  0
 36 37  1  0  0  0  0
 36 38  1  0  0  0  0
 38 39  1  0  0  0  0
 38 40  1  0  0  0  0
 38 41  1  0  0  0  0
 41 42  1  0  0  0  0
 41 43  1  0  0  0  0
 41 44  1  0  0  0  0
 44 45  1  0  0  0  0
 44 46  1  0  0  0  0
 44 48  1  0  0  0  0
 46 47  1  0  0  0  0
 48 49  1  0  0  0  0
 48 50  1  0  0  0  0
 48 58  1  0  0  0  0
 50 51  1  0  0  0  0
 50 52  1  0  0  0  0
 52 53  2  0  0  0  0
 52 54  1  0  0  0  0
 54 55  1  0  0  0  0
 54 56  1  0  0  0  0
 54 57  1  0  0  0  0
 58 59  1  0  0  0  0
 58 60  1  0  0  0  0
 58 61  1  0  0  0  0
 61 62  1  0  0  0  0
 61 70  2  0  0  0  0
 62 63  1  0  0  0  0
 62 64  2  0  0  0  0
 64 65  1  0  0  0  0
 64 66  1  0  0  0  0
 66 67  1  0  0  0  0
 66 68  2  0  0  0  0
 68 69  1  0  0  0  0
 68 70  1  0  0  0  0
 70 71  1  0  0  0  0
M  CHG  1  38   1
M  END
>  <PARENT_CMPD_ID>
22928914_8c

>  <STANDARD_TYPE>
IC50

>  <RELATION>
=

>  <STANDARD_VALUE>
5

>  <STANDARD_UNITS>
nM

>  <COMPOUND_KEY>
8c

>  <PUBMED_ID>
22928914

>  <JOURNAL>
J. Med. Chem.

>  <YEAR>
2012

>  <VOLUME>
55

>  <FIRST_PAGE>
9297

>  <Company>
Amgen

>  <idx>
334

>  <Model>
Valid

>  <target>
8.3010302

>  <des_pred_mlr>
6.6002598

>  <RF_Canvas>
7.5938573

>  <DNN_Canvas>
7.0981569

>  <pred_CoMFA>
6.9765

>  <pred_COMSIA>
7.3730998

>  <pred_abm5>
7.2614341

>  <pred_ff8>
7.4959402

>  <pred_gau6>
7.1214752

>  <CID>
BACE_334

>  <active>
1

>  <des_class_bayes>
0

>  <maacs_class_bayes>
1

>  <radial_class_bayes>
1

>  <dend_class_bayes>
1

>  <molprint_class_bayes>
1

>  <RF_canvas>
1

>  <DNN_canvas>
1

$$$$
CHEMBL1915978
  MOE2015           3D

 92 95  0  0  1  0  0  0  0  0999 V2000
   25.5440   20.2660   25.3840 C   0  0  0  0  0  0  0  0  0  0  0  0
   25.3300   21.3190   25.4890 H   0  0  0  0  0  0  0  0  0  0  0  0
   25.0640   12.0980   18.3880 C   0  0  0  0  0  0  0  0  0  0  0  0
   25.4760   12.6410   17.5510 H   0  0  0  0  0  0  0  0  0  0  0  0
   24.8550   19.2500   26.2860 C   0  0  0  0  0  0  0  0  0  0  0  0
   24.1510   19.5800   27.0350 H   0  0  0  0  0  0  0  0  0  0  0  0
   26.5380   19.7860   24.3330 C   0  0  0  0  0  0  0  0  0  0  0  0
   27.0290   20.5070   23.6960 H   0  0  0  0  0  0  0  0  0  0  0  0
   23.7700   12.5730   19.0460 C   0  0  0  0  0  0  0  0  0  0  0  0
   23.1420   13.6670   18.5860 F   0  0  0  0  0  0  0  0  0  0  0  0
   25.7760   10.8510   18.9170 C   0  0  0  0  0  0  0  0  0  0  0  0
   26.9120   10.4310   18.3380 F   0  0  0  0  0  0  0  0  0  0  0  0
   17.0770   13.1550   25.3900 C   0  0  0  0  0  0  0  0  0  0  0  0
   16.7080   14.1620   25.2630 H   0  0  0  0  0  0  0  0  0  0  0  0
   25.1630   17.7660   26.1270 C   0  0  0  0  0  0  0  0  0  0  0  0
   24.6780   17.0450   26.7690 H   0  0  0  0  0  0  0  0  0  0  0  0
   26.8480   18.3030   24.1690 C   0  0  0  0  0  0  0  0  0  0  0  0
   27.5550   17.9720   23.4220 H   0  0  0  0  0  0  0  0  0  0  0  0
   23.1920   11.7950   20.2340 C   0  0  0  0  0  0  0  0  0  0  0  0
   22.2780   12.1300   20.7020 H   0  0  0  0  0  0  0  0  0  0  0  0
   25.1970   10.0830   20.1030 C   0  0  0  0  0  0  0  0  0  0  0  0
   25.7070    9.2080   20.4780 H   0  0  0  0  0  0  0  0  0  0  0  0
   18.3620   12.9170   26.1880 C   0  0  0  0  0  0  0  0  0  0  0  0
   18.9010   13.7470   26.6200 H   0  0  0  0  0  0  0  0  0  0  0  0
   16.3070   11.9840   24.7690 C   0  0  0  0  0  0  0  0  0  0  0  0
   15.4020   12.1680   24.2090 H   0  0  0  0  0  0  0  0  0  0  0  0
   18.0990   10.3190   25.7430 C   0  0  0  0  0  0  0  0  0  0  0  0
   18.4660    9.3120   25.8740 H   0  0  0  0  0  0  0  0  0  0  0  0
   26.1510   17.2930   25.0690 C   0  0  0  0  0  0  0  0  0  0  0  0
   23.9030   10.5460   20.7600 C   0  0  0  0  0  0  0  0  0  0  0  0
   18.8690   11.4880   26.3630 C   0  0  0  0  0  0  0  0  0  0  0  0
   16.8220   10.5540   24.9440 C   0  0  0  0  0  0  0  0  0  0  0  0
   27.7350   13.0500   23.1850 C   0  0  0  0  0  0  0  0  0  0  0  0
   24.0040   12.9240   23.7880 C   0  0  0  0  0  0  0  0  0  0  0  0
   27.4330   13.9820   20.9840 C   0  0  0  0  0  0  0  0  0  0  0  0
   27.8040   15.0070   20.9950 H   0  0  0  0  0  0  0  0  0  0  0  0
   27.3830   13.6250   19.9550 H   0  0  0  0  0  0  0  0  0  0  0  0
   26.0390   13.9260   21.6230 C   0  0  0  0  0  0  0  0  0  0  0  0
   25.4140   13.1780   21.1360 H   0  0  0  0  0  0  0  0  0  0  0  0
   25.5470   14.8970   21.5760 H   0  0  0  0  0  0  0  0  0  0  0  0
   28.3710   13.0780   21.8060 C   0  0  3  0  0  0  0  0  0  0  0  0
   29.3890   13.4650   21.7660 H   0  0  0  0  0  0  0  0  0  0  0  0
   28.5520    9.1870   21.9110 C   0  0  0  0  0  0  0  0  0  0  0  0
   28.8720    8.4950   22.6900 H   0  0  0  0  0  0  0  0  0  0  0  0
   16.1710    9.2330   22.9690 C   0  0  0  0  0  0  0  0  0  0  0  0
   27.4780    9.0850   21.7530 H   0  0  0  0  0  0  0  0  0  0  0  0
   15.5970    8.3440   22.7090 H   0  0  0  0  0  0  0  0  0  0  0  0
   17.2060    9.1030   22.6520 H   0  0  0  0  0  0  0  0  0  0  0  0
   29.2810    8.8730   20.6290 C   0  0  0  0  0  0  0  0  0  0  0  0
   29.0530    7.8520   20.3230 H   0  0  0  0  0  0  0  0  0  0  0  0
   30.3540    8.9750   20.7860 H   0  0  0  0  0  0  0  0  0  0  0  0
   28.9600    9.5650   19.8500 H   0  0  0  0  0  0  0  0  0  0  0  0
   15.7440   10.1010   22.4670 H   0  0  0  0  0  0  0  0  0  0  0  0
   26.4490   15.8140   24.9270 C   0  0  0  0  0  0  0  0  0  0  0  0
   26.8900   15.4390   25.8500 H   0  0  0  0  0  0  0  0  0  0  0  0
   27.1450   15.6580   24.1020 H   0  0  0  0  0  0  0  0  0  0  0  0
   23.3370    9.7730   21.9500 C   0  0  0  0  0  0  0  0  0  0  0  0
   24.0900    9.0630   22.2930 H   0  0  0  0  0  0  0  0  0  0  0  0
   22.4490    9.2320   21.6220 H   0  0  0  0  0  0  0  0  0  0  0  0
   20.1520   11.2190   27.1510 C   0  0  0  0  0  0  0  0  0  0  0  0
   19.8920   10.7580   28.1040 H   0  0  0  0  0  0  0  0  0  0  0  0
   20.6600   12.1660   27.3330 H   0  0  0  0  0  0  0  0  0  0  0  0
   28.8690   10.6140   22.3390 C   0  0  0  0  0  0  0  0  0  0  0  0
   25.1510   15.0780   24.6460 C   0  0  0  0  0  0  0  0  0  0  0  0
   28.3430   10.8260   23.2700 H   0  0  0  0  0  0  0  0  0  0  0  0
   29.9490   10.6940   22.4670 H   0  0  0  0  0  0  0  0  0  0  0  0
   24.6020   15.6300   23.8830 H   0  0  0  0  0  0  0  0  0  0  0  0
   24.5670   15.0500   25.5660 H   0  0  0  0  0  0  0  0  0  0  0  0
   21.4960   10.9430   25.1360 C   0  0  0  0  0  0  0  0  0  0  0  0
   20.6140   11.2220   24.5600 H   0  0  0  0  0  0  0  0  0  0  0  0
   22.0850   11.8340   25.3530 H   0  0  0  0  0  0  0  0  0  0  0  0
   25.3450   13.6460   24.1560 C   0  0  3  0  0  0  0  0  0  0  0  0
   25.7640   13.1060   25.0050 H   0  0  0  0  0  0  0  0  0  0  0  0
   28.4460   11.6360   21.2920 C   0  0  3  0  0  0  0  0  0  0  0  0
   27.4210   11.4170   20.9920 H   0  0  0  0  0  0  0  0  0  0  0  0
   29.4210   11.5420   20.2670 O   0  0  0  0  0  0  0  0  0  0  0  0
   29.4420   10.6290   19.9690 H   0  0  0  0  0  0  0  0  0  0  0  0
   22.9510   10.6790   23.1230 C   0  0  3  0  0  0  0  0  0  0  0  0
   22.1400   11.3150   22.7680 H   0  0  0  0  0  0  0  0  0  0  0  0
   22.3370    9.9650   24.3300 C   0  0  3  0  0  0  0  0  0  0  0  0
   23.1530    9.5780   24.9400 H   0  0  0  0  0  0  0  0  0  0  0  0
   26.3360   13.5410   23.0350 N   0  0  0  0  0  0  0  0  0  0  0  0
   24.1020   11.5620   23.5080 N   0  0  0  0  0  0  0  0  0  0  0  0
   25.0290   11.1480   23.5480 H   0  0  0  0  0  0  0  0  0  0  0  0
   21.0740   10.3090   26.4090 N   0  3  0  0  0  0  0  0  0  0  0  0
   20.5980    9.4410   26.2090 H   0  0  0  0  0  0  0  0  0  0  0  0
   21.8890   10.1230   26.9760 H   0  0  0  0  0  0  0  0  0  0  0  0
   28.3970   12.5840   24.3550 O   0  0  0  0  0  0  0  0  0  0  0  0
   22.9140   13.4950   23.8260 O   0  0  0  0  0  0  0  0  0  0  0  0
   21.5090    8.8770   23.9180 O   0  0  0  0  0  0  0  0  0  0  0  0
   20.7990    9.2390   23.3830 H   0  0  0  0  0  0  0  0  0  0  0  0
   16.1270    9.4320   24.3850 O   0  0  0  0  0  0  0  0  0  0  0  0
  1  2  1  0  0  0  0
  1  5  2  0  0  0  0
  1  7  1  0  0  0  0
  3  4  1  0  0  0  0
  3  9  2  0  0  0  0
  3 11  1  0  0  0  0
  5  6  1  0  0  0  0
  5 15  1  0  0  0  0
  7  8  1  0  0  0  0
  7 17  2  0  0  0  0
  9 10  1  0  0  0  0
  9 19  1  0  0  0  0
 11 12  1  0  0  0  0
 11 21  2  0  0  0  0
 13 14  1  0  0  0  0
 13 23  2  0  0  0  0
 13 25  1  0  0  0  0
 15 16  1  0  0  0  0
 15 29  2  0  0  0  0
 17 18  1  0  0  0  0
 17 29  1  0  0  0  0
 19 20  1  0  0  0  0
 19 30  2  0  0  0  0
 21 22  1  0  0  0  0
 21 30  1  0  0  0  0
 23 24  1  0  0  0  0
 23 31  1  0  0  0  0
 25 26  1  0  0  0  0
 25 32  2  0  0  0  0
 27 28  1  0  0  0  0
 27 31  2  0  0  0  0
 27 32  1  0  0  0  0
 29 54  1  0  0  0  0
 30 57  1  0  0  0  0
 31 60  1  0  0  0  0
 32 92  1  0  0  0  0
 33 41  1  0  0  0  0
 33 82  1  0  0  0  0
 33 88  2  0  0  0  0
 34 72  1  0  0  0  0
 34 83  1  0  0  0  0
 34 89  2  0  0  0  0
 35 36  1  0  0  0  0
 35 37  1  0  0  0  0
 35 38  1  0  0  0  0
 35 41  1  0  0  0  0
 38 39  1  0  0  0  0
 38 40  1  0  0  0  0
 38 82  1  0  0  0  0
 41 42  1  0  0  0  0
 41 74  1  0  0  0  0
 43 44  1  0  0  0  0
 43 46  1  0  0  0  0
 43 49  1  0  0  0  0
 43 63  1  0  0  0  0
 45 47  1  0  0  0  0
 45 48  1  0  0  0  0
 45 53  1  0  0  0  0
 45 92  1  0  0  0  0
 49 50  1  0  0  0  0
 49 51  1  0  0  0  0
 49 52  1  0  0  0  0
 54 55  1  0  0  0  0
 54 56  1  0  0  0  0
 54 64  1  0  0  0  0
 57 58  1  0  0  0  0
 57 59  1  0  0  0  0
 57 78  1  0  0  0  0
 60 61  1  0  0  0  0
 60 62  1  0  0  0  0
 60 85  1  0  0  0  0
 63 65  1  0  0  0  0
 63 66  1  0  0  0  0
 63 74  1  0  0  0  0
 64 67  1  0  0  0  0
 64 68  1  0  0  0  0
 64 72  1  0  0  0  0
 69 70  1  0  0  0  0
 69 71  1  0  0  0  0
 69 80  1  0  0  0  0
 69 85  1  0  0  0  0
 72 73  1  0  0  0  0
 72 82  1  0  0  0  0
 74 75  1  0  0  0  0
 74 76  1  0  0  0  0
 76 77  1  0  0  0  0
 78 79  1  0  0  0  0
 78 80  1  0  0  0  0
 78 83  1  0  0  0  0
 80 81  1  0  0  0  0
 80 90  1  0  0  0  0
 83 84  1  0  0  0  0
 85 86  1  0  0  0  0
 85 87  1  0  0  0  0
 90 91  1  0  0  0  0
M  CHG  1  85   1
M  END
>  <PARENT_CMPD_ID>
CHEMBL1915978

>  <STANDARD_TYPE>
IC50

>  <RELATION>
=

>  <STANDARD_VALUE>
5.1999998

>  <STANDARD_UNITS>
nM

>  <COMPOUND_KEY>
1g

>  <PUBMED_ID>
21782431

>  <JOURNAL>
Bioorg.Med.Chem.Lett.

>  <YEAR>
2011

>  <VOLUME>
21

>  <FIRST_PAGE>
6916

>  <Company>
BMS

>  <idx>
335

>  <Model>
Valid

>  <target>
8.2839966

>  <des_pred_mlr>
7.5764899

>  <RF_Canvas>
7.6397381

>  <DNN_Canvas>
7.5795236

>  <pred_CoMFA>
8.1498003

>  <pred_COMSIA>
8.6555004

>  <pred_abm5>
8.3532276

>  <pred_ff8>
7.2496343

>  <pred_gau6>
8.1963406

>  <CID>
BACE_335

>  <active>
1

>  <des_class_bayes>
1

>  <maacs_class_bayes>
1

>  <radial_class_bayes>
1

>  <dend_class_bayes>
1

>  <molprint_class_bayes>
0

>  <RF_canvas>
1

>  <DNN_canvas>
1

$$$$
22468684_16
  MOE2015           3D

 84 88  0  0  1  0  0  0  0  0999 V2000
   20.7460   13.9120   29.6410 C   0  0  0  0  0  0  0  0  0  0  0  0
   20.1100   13.0350   30.7160 C   0  0  0  0  0  0  0  0  0  0  0  0
   19.0980   12.5660   29.6730 C   0  0  0  0  0  0  0  0  0  0  0  0
   20.0770   13.0240   28.5660 C   0  0  0  0  0  0  0  0  0  0  0  0
   21.0060   11.9740   27.9840 C   0  0  0  0  0  0  0  0  0  0  0  0
   19.4900   13.7850   27.4980 O   0  0  0  0  0  0  0  0  0  0  0  0
   18.8570   13.0760   26.5140 C   0  0  0  0  0  0  0  0  0  0  0  0
   17.9700   13.7910   25.8060 N   0  0  0  0  0  0  0  0  0  0  0  0
   17.3340   13.1540   24.8090 C   0  0  0  0  0  0  0  0  0  0  0  0
   17.5160   11.8150   24.4980 C   0  0  0  0  0  0  0  0  0  0  0  0
   16.7250   11.1690   23.4010 C   0  0  0  0  0  0  0  0  0  0  0  0
   15.3900   10.5200   23.8220 C   0  0  0  0  0  0  0  0  0  0  0  0
   14.4870   11.4980   24.5730 C   0  0  0  0  0  0  0  0  0  0  0  0
   15.6250    9.2850   24.6930 C   0  0  0  0  0  0  0  0  0  0  0  0
   14.6590   10.0780   22.5500 C   0  0  0  0  0  0  0  0  0  0  0  0
   18.4430   11.1070   25.2530 C   0  0  0  0  0  0  0  0  0  0  0  0
   19.1590   11.7450   26.2670 C   0  0  0  0  0  0  0  0  0  0  0  0
   20.2070   11.0350   27.0740 C   0  0  3  0  0  0  0  0  0  0  0  0
   21.1850   10.2340   26.2480 N   0  3  0  0  0  0  0  0  0  0  0  0
   21.9080   10.9950   25.1700 C   0  0  0  0  0  0  0  0  0  0  0  0
   22.3460   10.0150   24.0890 C   0  0  3  0  0  0  0  0  0  0  0  0
   21.2070    9.2430   23.6910 O   0  0  0  0  0  0  0  0  0  0  0  0
   22.9640   10.7180   22.8670 C   0  0  3  0  0  0  0  0  0  0  0  0
   23.9940   11.6700   23.2650 N   0  0  0  0  0  0  0  0  0  0  0  0
   23.7520   13.0250   23.3420 C   0  0  0  0  0  0  0  0  0  0  0  0
   22.6610   13.5290   23.0990 O   0  0  0  0  0  0  0  0  0  0  0  0
   24.9250   13.8360   23.8650 C   0  0  0  0  0  0  0  0  0  0  0  0
   26.1720   13.3080   23.4460 O   0  0  0  0  0  0  0  0  0  0  0  0
   26.5850   13.8470   22.1990 C   0  0  0  0  0  0  0  0  0  0  0  0
   23.4780    9.6570   21.8790 C   0  0  0  0  0  0  0  0  0  0  0  0
   24.2320   10.2470   20.7300 C   0  0  0  0  0  0  0  0  0  0  0  0
   25.6180   10.3260   20.8090 C   0  0  0  0  0  0  0  0  0  0  0  0
   23.5800   10.7690   19.6220 C   0  0  0  0  0  0  0  0  0  0  0  0
   24.3110   11.3510   18.6000 C   0  0  0  0  0  0  0  0  0  0  0  0
   25.6940   11.4290   18.6890 C   0  0  0  0  0  0  0  0  0  0  0  0
   26.3650   10.9240   19.8030 C   0  0  0  0  0  0  0  0  0  0  0  0
   27.8010   11.1050   19.9510 C   0  0  0  0  0  0  0  0  0  0  0  0
   28.5900   12.1240   19.4540 C   0  0  0  0  0  0  0  0  0  0  0  0
   28.2390   12.9440   18.8400 H   0  0  0  0  0  0  0  0  0  0  0  0
   29.9100   12.1010   19.8120 N   0  0  0  0  0  0  0  0  0  0  0  0
   30.1390   11.0460   20.5550 C   0  0  0  0  0  0  0  0  0  0  0  0
   28.7970   10.0420   20.8660 S   0  0  0  0  0  0  0  0  0  0  0  0
   21.8400   13.9320   29.6470 H   0  0  0  0  0  0  0  0  0  0  0  0
   20.3840   14.9470   29.6490 H   0  0  0  0  0  0  0  0  0  0  0  0
   19.6920   13.5670   31.5750 H   0  0  0  0  0  0  0  0  0  0  0  0
   20.7680   12.2380   31.0800 H   0  0  0  0  0  0  0  0  0  0  0  0
   18.1570   13.1280   29.6920 H   0  0  0  0  0  0  0  0  0  0  0  0
   18.8620   11.4990   29.7100 H   0  0  0  0  0  0  0  0  0  0  0  0
   21.5070   11.3910   28.7670 H   0  0  0  0  0  0  0  0  0  0  0  0
   21.7990   12.4880   27.4270 H   0  0  0  0  0  0  0  0  0  0  0  0
   16.6310   13.7720   24.2570 H   0  0  0  0  0  0  0  0  0  0  0  0
   17.3610   10.4230   22.9030 H   0  0  0  0  0  0  0  0  0  0  0  0
   16.5340   11.9280   22.6290 H   0  0  0  0  0  0  0  0  0  0  0  0
   14.8990   11.7740   25.5500 H   0  0  0  0  0  0  0  0  0  0  0  0
   13.5000   11.0590   24.7620 H   0  0  0  0  0  0  0  0  0  0  0  0
   14.3290   12.4170   23.9990 H   0  0  0  0  0  0  0  0  0  0  0  0
   16.0580    9.5460   25.6650 H   0  0  0  0  0  0  0  0  0  0  0  0
   16.3000    8.5740   24.2040 H   0  0  0  0  0  0  0  0  0  0  0  0
   14.6850    8.7590   24.8960 H   0  0  0  0  0  0  0  0  0  0  0  0
   14.4410   10.9310   21.8980 H   0  0  0  0  0  0  0  0  0  0  0  0
   13.7050    9.5910   22.7830 H   0  0  0  0  0  0  0  0  0  0  0  0
   15.2600    9.3650   21.9730 H   0  0  0  0  0  0  0  0  0  0  0  0
   18.5990   10.0530   25.0380 H   0  0  0  0  0  0  0  0  0  0  0  0
   19.6940   10.2940   27.7000 H   0  0  0  0  0  0  0  0  0  0  0  0
   20.6830    9.4750   25.7550 H   0  0  0  0  0  0  0  0  0  0  0  0
   21.8610    9.7530   26.8550 H   0  0  0  0  0  0  0  0  0  0  0  0
   22.7540   11.4980   25.6450 H   0  0  0  0  0  0  0  0  0  0  0  0
   21.2210   11.7330   24.7500 H   0  0  0  0  0  0  0  0  0  0  0  0
   23.0700    9.3160   24.5260 H   0  0  0  0  0  0  0  0  0  0  0  0
   20.7100    9.7230   23.0010 H   0  0  0  0  0  0  0  0  0  0  0  0
   22.1720   11.2780   22.3520 H   0  0  0  0  0  0  0  0  0  0  0  0
   24.9430   11.3620   23.4770 H   0  0  0  0  0  0  0  0  0  0  0  0
   24.8120   14.8870   23.5770 H   0  0  0  0  0  0  0  0  0  0  0  0
   24.8920   13.7780   24.9580 H   0  0  0  0  0  0  0  0  0  0  0  0
   27.5530   13.4110   21.9460 H   0  0  0  0  0  0  0  0  0  0  0  0
   26.7100   14.9320   22.2720 H   0  0  0  0  0  0  0  0  0  0  0  0
   25.8650   13.6050   21.4130 H   0  0  0  0  0  0  0  0  0  0  0  0
   22.6430    9.0610   21.4900 H   0  0  0  0  0  0  0  0  0  0  0  0
   24.1260    8.9410   22.4030 H   0  0  0  0  0  0  0  0  0  0  0  0
   26.1100    9.9400   21.6990 H   0  0  0  0  0  0  0  0  0  0  0  0
   22.4960   10.7290   19.5460 H   0  0  0  0  0  0  0  0  0  0  0  0
   23.7990   11.7550   17.7300 H   0  0  0  0  0  0  0  0  0  0  0  0
   26.2370   11.8970   17.8710 H   0  0  0  0  0  0  0  0  0  0  0  0
   31.1220   10.8220   20.9480 H   0  0  0  0  0  0  0  0  0  0  0  0
  1  2  1  0  0  0  0
  1  4  1  0  0  0  0
  1 43  1  0  0  0  0
  1 44  1  0  0  0  0
  2  3  1  0  0  0  0
  2 45  1  0  0  0  0
  2 46  1  0  0  0  0
  3  4  1  0  0  0  0
  3 47  1  0  0  0  0
  3 48  1  0  0  0  0
  4  5  1  0  0  0  0
  4  6  1  0  0  0  0
  5 18  1  0  0  0  0
  5 49  1  0  0  0  0
  5 50  1  0  0  0  0
  6  7  1  0  0  0  0
  7  8  1  0  0  0  0
  7 17  2  0  0  0  0
  8  9  2  0  0  0  0
  9 10  1  0  0  0  0
  9 51  1  0  0  0  0
 10 11  1  0  0  0  0
 10 16  2  0  0  0  0
 11 12  1  0  0  0  0
 11 52  1  0  0  0  0
 11 53  1  0  0  0  0
 12 13  1  0  0  0  0
 12 14  1  0  0  0  0
 12 15  1  0  0  0  0
 13 54  1  0  0  0  0
 13 55  1  0  0  0  0
 13 56  1  0  0  0  0
 14 57  1  0  0  0  0
 14 58  1  0  0  0  0
 14 59  1  0  0  0  0
 15 60  1  0  0  0  0
 15 61  1  0  0  0  0
 15 62  1  0  0  0  0
 16 17  1  0  0  0  0
 16 63  1  0  0  0  0
 17 18  1  0  0  0  0
 18 19  1  0  0  0  0
 18 64  1  0  0  0  0
 19 20  1  0  0  0  0
 19 65  1  0  0  0  0
 19 66  1  0  0  0  0
 20 21  1  0  0  0  0
 20 67  1  0  0  0  0
 20 68  1  0  0  0  0
 21 22  1  0  0  0  0
 21 23  1  0  0  0  0
 21 69  1  0  0  0  0
 22 70  1  0  0  0  0
 23 24  1  0  0  0  0
 23 30  1  0  0  0  0
 23 71  1  0  0  0  0
 24 25  1  0  0  0  0
 24 72  1  0  0  0  0
 25 26  2  0  0  0  0
 25 27  1  0  0  0  0
 27 28  1  0  0  0  0
 27 73  1  0  0  0  0
 27 74  1  0  0  0  0
 28 29  1  0  0  0  0
 29 75  1  0  0  0  0
 29 76  1  0  0  0  0
 29 77  1  0  0  0  0
 30 31  1  0  0  0  0
 30 78  1  0  0  0  0
 30 79  1  0  0  0  0
 31 32  1  0  0  0  0
 31 33  2  0  0  0  0
 32 36  2  0  0  0  0
 32 80  1  0  0  0  0
 33 34  1  0  0  0  0
 33 81  1  0  0  0  0
 34 35  2  0  0  0  0
 34 82  1  0  0  0  0
 35 36  1  0  0  0  0
 35 83  1  0  0  0  0
 36 37  1  0  0  0  0
 37 38  2  0  0  0  0
 37 42  1  0  0  0  0
 38 39  1  0  0  0  0
 38 40  1  0  0  0  0
 40 41  2  0  0  0  0
 41 42  1  0  0  0  0
 41 84  1  0  0  0  0
M  CHG  1  19   1
M  END
>  <PARENT_CMPD_ID>
22468684_16

>  <STANDARD_TYPE>
IC50

>  <RELATION>
=

>  <STANDARD_VALUE>
5.1999998

>  <STANDARD_UNITS>
nM

>  <COMPOUND_KEY>
16

>  <PUBMED_ID>
22468684

>  <JOURNAL>
J.Med.Chem.

>  <YEAR>
2012

>  <VOLUME>
55

>  <FIRST_PAGE>
9025

>  <Company>
Amgen

>  <idx>
336

>  <Model>
Valid

>  <target>
8.2839966

>  <des_pred_mlr>
7.4187298

>  <RF_Canvas>
7.8886957

>  <DNN_Canvas>
7.9100447

>  <pred_CoMFA>
8.9361

>  <pred_COMSIA>
8.4735003

>  <pred_abm5>
8.729516

>  <pred_ff8>
8.1611881

>  <pred_gau6>
8.8357697

>  <CID>
BACE_336

>  <active>
1

>  <des_class_bayes>
1

>  <maacs_class_bayes>
1

>  <radial_class_bayes>
0

>  <dend_class_bayes>
1

>  <molprint_class_bayes>
1

>  <RF_canvas>
1

>  <DNN_canvas>
1

$$$$
22468639_19
  MOE2015           3D

 81 85  0  0  1  0  0  0  0  0999 V2000
   21.0990   13.8330   29.1910 C   0  0  0  0  0  0  0  0  0  0  0  0
   22.1930   13.8370   29.1830 H   0  0  0  0  0  0  0  0  0  0  0  0
   20.7530   14.8730   29.1560 H   0  0  0  0  0  0  0  0  0  0  0  0
   20.4640   13.0180   30.3130 C   0  0  0  0  0  0  0  0  0  0  0  0
   20.0590   13.5950   31.1470 H   0  0  0  0  0  0  0  0  0  0  0  0
   21.1190   12.2350   30.7110 H   0  0  0  0  0  0  0  0  0  0  0  0
   19.4400   12.5040   29.3040 C   0  0  0  0  0  0  0  0  0  0  0  0
   18.4990   13.0670   29.3110 H   0  0  0  0  0  0  0  0  0  0  0  0
   19.2030   11.4390   29.3910 H   0  0  0  0  0  0  0  0  0  0  0  0
   20.4030   12.9070   28.1640 C   0  0  0  0  0  0  0  0  0  0  0  0
   21.3180   11.8310   27.6060 C   0  0  0  0  0  0  0  0  0  0  0  0
   21.8190   11.2670   28.4020 H   0  0  0  0  0  0  0  0  0  0  0  0
   22.1120   12.3240   27.0310 H   0  0  0  0  0  0  0  0  0  0  0  0
   19.8030   13.6320   27.0800 O   0  0  0  0  0  0  0  0  0  0  0  0
   19.1470   12.8940   26.1340 C   0  0  0  0  0  0  0  0  0  0  0  0
   18.2370   13.5870   25.4330 N   0  0  0  0  0  0  0  0  0  0  0  0
   17.5710   12.9220   24.4760 C   0  0  0  0  0  0  0  0  0  0  0  0
   16.8550   13.5260   23.9250 H   0  0  0  0  0  0  0  0  0  0  0  0
   17.7460   11.5750   24.1980 C   0  0  0  0  0  0  0  0  0  0  0  0
   16.9370   10.9050   23.1270 C   0  0  0  0  0  0  0  0  0  0  0  0
   17.5410   10.0980   22.6870 H   0  0  0  0  0  0  0  0  0  0  0  0
   16.8040   11.6260   22.3080 H   0  0  0  0  0  0  0  0  0  0  0  0
   15.5620   10.3500   23.5510 C   0  0  0  0  0  0  0  0  0  0  0  0
   14.8540    9.8390   22.2920 C   0  0  0  0  0  0  0  0  0  0  0  0
   14.6970   10.6450   21.5660 H   0  0  0  0  0  0  0  0  0  0  0  0
   13.8710    9.4140   22.5280 H   0  0  0  0  0  0  0  0  0  0  0  0
   15.4390    9.0560   21.7970 H   0  0  0  0  0  0  0  0  0  0  0  0
   14.6770   11.4220   24.1880 C   0  0  0  0  0  0  0  0  0  0  0  0
   14.5820   12.2990   23.5380 H   0  0  0  0  0  0  0  0  0  0  0  0
   15.0650   11.7550   25.1560 H   0  0  0  0  0  0  0  0  0  0  0  0
   13.6650   11.0410   24.3710 H   0  0  0  0  0  0  0  0  0  0  0  0
   15.7150    9.1830   24.5260 C   0  0  0  0  0  0  0  0  0  0  0  0
   16.3620    8.4010   24.1130 H   0  0  0  0  0  0  0  0  0  0  0  0
   14.7450    8.7230   24.7500 H   0  0  0  0  0  0  0  0  0  0  0  0
   16.1450    9.5030   25.4810 H   0  0  0  0  0  0  0  0  0  0  0  0
   18.6970   10.8890   24.9460 C   0  0  0  0  0  0  0  0  0  0  0  0
   18.8470    9.8290   24.7570 H   0  0  0  0  0  0  0  0  0  0  0  0
   19.4450   11.5560   25.9170 C   0  0  0  0  0  0  0  0  0  0  0  0
   20.5110   10.8730   26.7230 C   0  0  3  0  0  0  0  0  0  0  0  0
   20.0070   10.1470   27.3740 H   0  0  0  0  0  0  0  0  0  0  0  0
   21.4810   10.0460   25.9070 N   0  3  0  0  0  0  0  0  0  0  0  0
   20.9650    9.2840   25.4350 H   0  0  0  0  0  0  0  0  0  0  0  0
   22.1440    9.5670   26.5320 H   0  0  0  0  0  0  0  0  0  0  0  0
   22.2280   10.7650   24.8130 C   0  0  0  0  0  0  0  0  0  0  0  0
   23.0530   11.2990   25.2910 H   0  0  0  0  0  0  0  0  0  0  0  0
   21.5400   11.4730   24.3440 H   0  0  0  0  0  0  0  0  0  0  0  0
   22.7190    9.7390   23.7890 C   0  0  3  0  0  0  0  0  0  0  0  0
   23.3870    9.0200   24.2770 H   0  0  0  0  0  0  0  0  0  0  0  0
   21.5740    9.0150   23.3220 O   0  0  0  0  0  0  0  0  0  0  0  0
   21.1180    9.5300   22.6290 H   0  0  0  0  0  0  0  0  0  0  0  0
   23.4430   10.4270   22.6160 C   0  0  3  0  0  0  0  0  0  0  0  0
   22.7070   11.1000   22.1570 H   0  0  0  0  0  0  0  0  0  0  0  0
   24.5780   11.2260   23.0640 N   0  0  0  0  0  0  0  0  0  0  0  0
   25.4440   10.7590   23.3180 H   0  0  0  0  0  0  0  0  0  0  0  0
   24.5080   12.6020   23.1040 C   0  0  0  0  0  0  0  0  0  0  0  0
   23.4720   13.2210   22.8820 O   0  0  0  0  0  0  0  0  0  0  0  0
   25.8130   13.2950   23.4540 C   0  0  0  0  0  0  0  0  0  0  0  0
   26.4560   12.6590   24.0720 H   0  0  0  0  0  0  0  0  0  0  0  0
   26.3350   13.4970   22.5130 H   0  0  0  0  0  0  0  0  0  0  0  0
   25.5450   14.5370   24.0820 O   0  0  0  0  0  0  0  0  0  0  0  0
   25.4080   14.4200   25.4880 C   0  0  0  0  0  0  0  0  0  0  0  0
   25.1720   15.4080   25.8950 H   0  0  0  0  0  0  0  0  0  0  0  0
   26.3440   14.0760   25.9370 H   0  0  0  0  0  0  0  0  0  0  0  0
   24.5940   13.7350   25.7450 H   0  0  0  0  0  0  0  0  0  0  0  0
   23.9020    9.4420   21.5240 C   0  0  0  0  0  0  0  0  0  0  0  0
   23.0670    8.8150   21.1870 H   0  0  0  0  0  0  0  0  0  0  0  0
   24.6580    8.7590   21.9330 H   0  0  0  0  0  0  0  0  0  0  0  0
   24.4540   10.1740   20.3270 C   0  0  0  0  0  0  0  0  0  0  0  0
   25.7970   10.0430   19.9640 C   0  0  0  0  0  0  0  0  0  0  0  0
   26.4740    9.3820   20.4950 H   0  0  0  0  0  0  0  0  0  0  0  0
   26.2540   10.7820   18.8950 C   0  0  0  0  0  0  0  0  0  0  0  0
   27.5070   10.7560   18.3700 O   0  0  0  0  0  0  0  0  0  0  0  0
   27.4170   11.8180   17.4070 C   0  0  0  0  0  0  0  0  0  0  0  0
   27.8520   11.4690   16.4640 H   0  0  0  0  0  0  0  0  0  0  0  0
   27.9990   12.6780   17.7620 H   0  0  0  0  0  0  0  0  0  0  0  0
   26.0660   12.2280   17.1640 O   0  0  0  0  0  0  0  0  0  0  0  0
   25.4300   11.6240   18.1970 C   0  0  0  0  0  0  0  0  0  0  0  0
   24.1040   11.7660   18.5150 C   0  0  0  0  0  0  0  0  0  0  0  0
   23.4600   12.4240   17.9420 H   0  0  0  0  0  0  0  0  0  0  0  0
   23.6160   11.0270   19.5840 C   0  0  0  0  0  0  0  0  0  0  0  0
   22.5640   11.1270   19.8410 H   0  0  0  0  0  0  0  0  0  0  0  0
  1  2  1  0  0  0  0
  1  3  1  0  0  0  0
  1  4  1  0  0  0  0
  1 10  1  0  0  0  0
  4  5  1  0  0  0  0
  4  6  1  0  0  0  0
  4  7  1  0  0  0  0
  7  8  1  0  0  0  0
  7  9  1  0  0  0  0
  7 10  1  0  0  0  0
 10 11  1  0  0  0  0
 10 14  1  0  0  0  0
 11 12  1  0  0  0  0
 11 13  1  0  0  0  0
 11 39  1  0  0  0  0
 14 15  1  0  0  0  0
 15 16  1  0  0  0  0
 15 38  2  0  0  0  0
 16 17  2  0  0  0  0
 17 18  1  0  0  0  0
 17 19  1  0  0  0  0
 19 20  1  0  0  0  0
 19 36  2  0  0  0  0
 20 21  1  0  0  0  0
 20 22  1  0  0  0  0
 20 23  1  0  0  0  0
 23 24  1  0  0  0  0
 23 28  1  0  0  0  0
 23 32  1  0  0  0  0
 24 25  1  0  0  0  0
 24 26  1  0  0  0  0
 24 27  1  0  0  0  0
 28 29  1  0  0  0  0
 28 30  1  0  0  0  0
 28 31  1  0  0  0  0
 32 33  1  0  0  0  0
 32 34  1  0  0  0  0
 32 35  1  0  0  0  0
 36 37  1  0  0  0  0
 36 38  1  0  0  0  0
 38 39  1  0  0  0  0
 39 40  1  0  0  0  0
 39 41  1  0  0  0  0
 41 42  1  0  0  0  0
 41 43  1  0  0  0  0
 41 44  1  0  0  0  0
 44 45  1  0  0  0  0
 44 46  1  0  0  0  0
 44 47  1  0  0  0  0
 47 48  1  0  0  0  0
 47 49  1  0  0  0  0
 47 51  1  0  0  0  0
 49 50  1  0  0  0  0
 51 52  1  0  0  0  0
 51 53  1  0  0  0  0
 51 65  1  0  0  0  0
 53 54  1  0  0  0  0
 53 55  1  0  0  0  0
 55 56  2  0  0  0  0
 55 57  1  0  0  0  0
 57 58  1  0  0  0  0
 57 59  1  0  0  0  0
 57 60  1  0  0  0  0
 60 61  1  0  0  0  0
 61 62  1  0  0  0  0
 61 63  1  0  0  0  0
 61 64  1  0  0  0  0
 65 66  1  0  0  0  0
 65 67  1  0  0  0  0
 65 68  1  0  0  0  0
 68 69  1  0  0  0  0
 68 80  2  0  0  0  0
 69 70  1  0  0  0  0
 69 71  2  0  0  0  0
 71 72  1  0  0  0  0
 71 77  1  0  0  0  0
 72 73  1  0  0  0  0
 73 74  1  0  0  0  0
 73 75  1  0  0  0  0
 73 76  1  0  0  0  0
 76 77  1  0  0  0  0
 77 78  2  0  0  0  0
 78 79  1  0  0  0  0
 78 80  1  0  0  0  0
 80 81  1  0  0  0  0
M  CHG  1  41   1
M  END
>  <PARENT_CMPD_ID>
22468639_19

>  <STANDARD_TYPE>
IC50

>  <RELATION>
=

>  <STANDARD_VALUE>
5.4000001

>  <STANDARD_UNITS>
nM

>  <COMPOUND_KEY>
19

>  <PUBMED_ID>
22468639

>  <JOURNAL>
J. Med. Chem.

>  <YEAR>
2012

>  <VOLUME>
55

>  <FIRST_PAGE>
9009

>  <Company>
Amgen

>  <idx>
337

>  <Model>
Valid

>  <target>
8.2676058

>  <des_pred_mlr>
7.36621

>  <RF_Canvas>
7.780632

>  <DNN_Canvas>
7.7920642

>  <pred_CoMFA>
7.5896001

>  <pred_COMSIA>
7.2463002

>  <pred_abm5>
7.665051

>  <pred_ff8>
7.4070387

>  <pred_gau6>
7.6513653

>  <CID>
BACE_337

>  <active>
1

>  <des_class_bayes>
0

>  <maacs_class_bayes>
1

>  <radial_class_bayes>
1

>  <dend_class_bayes>
1

>  <molprint_class_bayes>
1

>  <RF_canvas>
1

>  <DNN_canvas>
1

$$$$
CHEMBL1915994
  MOE2015           3D

 91 94  0  0  1  0  0  0  0  0999 V2000
   25.1250   20.4600   25.3770 C   0  0  0  0  0  0  0  0  0  0  0  0
   25.0110   21.5340   25.3990 H   0  0  0  0  0  0  0  0  0  0  0  0
   24.5530   19.6790   26.3820 C   0  0  0  0  0  0  0  0  0  0  0  0
   23.9970   20.1390   27.1860 H   0  0  0  0  0  0  0  0  0  0  0  0
   25.8500   19.8520   24.3350 C   0  0  0  0  0  0  0  0  0  0  0  0
   26.2880   20.4650   23.5610 H   0  0  0  0  0  0  0  0  0  0  0  0
   24.7120   18.2920   26.3300 C   0  0  0  0  0  0  0  0  0  0  0  0
   24.2700   17.6760   27.0990 H   0  0  0  0  0  0  0  0  0  0  0  0
   26.0110   18.4630   24.2890 C   0  0  0  0  0  0  0  0  0  0  0  0
   26.5700   17.9990   23.4900 H   0  0  0  0  0  0  0  0  0  0  0  0
   23.1870   11.8460   20.3250 C   0  0  0  0  0  0  0  0  0  0  0  0
   22.2260   12.1450   20.7180 H   0  0  0  0  0  0  0  0  0  0  0  0
   25.1040   10.4330   20.3920 C   0  0  0  0  0  0  0  0  0  0  0  0
   25.6580    9.6180   20.8340 H   0  0  0  0  0  0  0  0  0  0  0  0
   24.9360   12.1640   18.6930 C   0  0  0  0  0  0  0  0  0  0  0  0
   25.3360   12.6830   17.8350 H   0  0  0  0  0  0  0  0  0  0  0  0
   25.4350   17.6910   25.2960 C   0  0  0  0  0  0  0  0  0  0  0  0
   23.8700   10.7920   20.9260 C   0  0  0  0  0  0  0  0  0  0  0  0
   23.7120   12.5220   19.2320 C   0  0  0  0  0  0  0  0  0  0  0  0
   25.6390   11.1160   19.2860 C   0  0  0  0  0  0  0  0  0  0  0  0
   27.1750   13.4880   23.6660 C   0  0  0  0  0  0  0  0  0  0  0  0
   23.6640   13.1990   23.8080 C   0  0  0  0  0  0  0  0  0  0  0  0
   27.2350   14.1150   21.3400 C   0  0  0  0  0  0  0  0  0  0  0  0
   27.5580   15.1550   21.2900 H   0  0  0  0  0  0  0  0  0  0  0  0
   27.3370   13.6550   20.3570 H   0  0  0  0  0  0  0  0  0  0  0  0
   20.4890   11.9020   25.1990 C   0  0  0  0  0  0  0  0  0  0  0  0
   20.8500   12.9300   25.1550 H   0  0  0  0  0  0  0  0  0  0  0  0
   20.0890   11.6150   24.2260 H   0  0  0  0  0  0  0  0  0  0  0  0
   25.8080   13.9890   21.8800 C   0  0  0  0  0  0  0  0  0  0  0  0
   25.3190   13.1130   21.4530 H   0  0  0  0  0  0  0  0  0  0  0  0
   25.2320   14.8820   21.6350 H   0  0  0  0  0  0  0  0  0  0  0  0
   20.1540   11.0320   27.3770 C   0  0  0  0  0  0  0  0  0  0  0  0
   19.4610   10.5130   28.0390 H   0  0  0  0  0  0  0  0  0  0  0  0
   20.7690   11.7180   27.9600 H   0  0  0  0  0  0  0  0  0  0  0  0
   19.4070   11.7700   26.2720 C   0  0  3  0  0  0  0  0  0  0  0  0
   18.9590   12.7220   26.5570 H   0  0  0  0  0  0  0  0  0  0  0  0
   21.6380   10.9530   25.6010 C   0  0  3  0  0  0  0  0  0  0  0  0
   22.4980   11.5110   25.9720 H   0  0  0  0  0  0  0  0  0  0  0  0
   27.9980   13.3320   22.4170 C   0  0  3  0  0  0  0  0  0  0  0  0
   29.0320   13.6410   22.5690 H   0  0  0  0  0  0  0  0  0  0  0  0
   16.0490    9.3610   24.5570 C   0  0  0  0  0  0  0  0  0  0  0  0
   15.6890    8.8420   23.6690 H   0  0  0  0  0  0  0  0  0  0  0  0
   15.2230    9.5050   25.2530 H   0  0  0  0  0  0  0  0  0  0  0  0
   16.8280    8.7670   25.0350 H   0  0  0  0  0  0  0  0  0  0  0  0
   25.5880   16.1920   25.2840 C   0  0  0  0  0  0  0  0  0  0  0  0
   25.5430   15.8240   26.3090 H   0  0  0  0  0  0  0  0  0  0  0  0
   26.5550   15.9390   24.8500 H   0  0  0  0  0  0  0  0  0  0  0  0
   23.2770   10.0620   22.1220 C   0  0  0  0  0  0  0  0  0  0  0  0
   24.0490    9.4200   22.5450 H   0  0  0  0  0  0  0  0  0  0  0  0
   22.4480    9.4490   21.7690 H   0  0  0  0  0  0  0  0  0  0  0  0
   27.8650   11.8720   21.9640 C   0  0  0  0  0  0  0  0  0  0  0  0
   27.2960   11.8870   21.0340 H   0  0  0  0  0  0  0  0  0  0  0  0
   27.4200   11.3920   22.8360 H   0  0  0  0  0  0  0  0  0  0  0  0
   16.6220   10.7260   24.1550 C   0  0  0  0  0  0  0  0  0  0  0  0
   15.8370   11.3080   23.6720 H   0  0  0  0  0  0  0  0  0  0  0  0
   17.4420   10.5700   23.4540 H   0  0  0  0  0  0  0  0  0  0  0  0
   24.4840   15.5150   24.4650 C   0  0  0  0  0  0  0  0  0  0  0  0
   24.4070   15.9970   23.4900 H   0  0  0  0  0  0  0  0  0  0  0  0
   23.5340   15.6050   24.9910 H   0  0  0  0  0  0  0  0  0  0  0  0
   17.1490   11.5140   25.3650 C   0  0  0  0  0  0  0  0  0  0  0  0
   16.4130   11.4910   26.1690 H   0  0  0  0  0  0  0  0  0  0  0  0
   17.3390   12.5480   25.0770 H   0  0  0  0  0  0  0  0  0  0  0  0
   24.8240   14.0400   24.2780 C   0  0  3  0  0  0  0  0  0  0  0  0
   25.1090   13.7090   25.2770 H   0  0  0  0  0  0  0  0  0  0  0  0
   22.2260   10.1380   24.4290 C   0  0  3  0  0  0  0  0  0  0  0  0
   23.1120    9.6280   24.8060 H   0  0  0  0  0  0  0  0  0  0  0  0
   29.0960   11.0120   21.7030 C   0  0  0  0  0  0  0  0  0  0  0  0
   29.8870   11.4800   20.5080 C   0  0  0  0  0  0  0  0  0  0  0  0
   30.7530   10.8320   20.3680 H   0  0  0  0  0  0  0  0  0  0  0  0
   30.2230   12.5040   20.6730 H   0  0  0  0  0  0  0  0  0  0  0  0
   29.2580   11.4430   19.6180 H   0  0  0  0  0  0  0  0  0  0  0  0
   29.7390   11.0460   22.5830 H   0  0  0  0  0  0  0  0  0  0  0  0
   28.6510    9.5920   21.4610 C   0  0  0  0  0  0  0  0  0  0  0  0
   29.5220    8.9650   21.2730 H   0  0  0  0  0  0  0  0  0  0  0  0
   27.9870    9.5610   20.5960 H   0  0  0  0  0  0  0  0  0  0  0  0
   28.1200    9.2230   22.3390 H   0  0  0  0  0  0  0  0  0  0  0  0
   22.7500   10.9840   23.2440 C   0  0  3  0  0  0  0  0  0  0  0  0
   21.9310   11.5870   22.8520 H   0  0  0  0  0  0  0  0  0  0  0  0
   21.0040   10.0590   26.6180 N   0  3  0  0  0  0  0  0  0  0  0  0
   20.4440    9.3410   26.1810 H   0  0  0  0  0  0  0  0  0  0  0  0
   21.6960    9.6290   27.2150 H   0  0  0  0  0  0  0  0  0  0  0  0
   25.9260   13.8440   23.3410 N   0  0  0  0  0  0  0  0  0  0  0  0
   23.8270   11.8630   23.7040 N   0  0  0  0  0  0  0  0  0  0  0  0
   24.7190   11.4580   23.9510 H   0  0  0  0  0  0  0  0  0  0  0  0
   27.5680   13.2710   24.7900 O   0  0  0  0  0  0  0  0  0  0  0  0
   22.5950   13.7100   23.5250 O   0  0  0  0  0  0  0  0  0  0  0  0
   21.2320    9.2070   23.9900 O   0  0  0  0  0  0  0  0  0  0  0  0
   20.4810    9.7130   23.6710 H   0  0  0  0  0  0  0  0  0  0  0  0
   18.3730   10.8990   25.8080 O   0  0  0  0  0  0  0  0  0  0  0  0
   23.0210   13.5220   18.6820 F   0  0  0  0  0  0  0  0  0  0  0  0
   26.8390   10.7710   18.7780 F   0  0  0  0  0  0  0  0  0  0  0  0
  1  2  1  0  0  0  0
  1  3  2  0  0  0  0
  1  5  1  0  0  0  0
  3  4  1  0  0  0  0
  3  7  1  0  0  0  0
  5  6  1  0  0  0  0
  5  9  2  0  0  0  0
  7  8  1  0  0  0  0
  7 17  2  0  0  0  0
  9 10  1  0  0  0  0
  9 17  1  0  0  0  0
 11 12  1  0  0  0  0
 11 18  2  0  0  0  0
 11 19  1  0  0  0  0
 13 14  1  0  0  0  0
 13 18  1  0  0  0  0
 13 20  2  0  0  0  0
 15 16  1  0  0  0  0
 15 19  2  0  0  0  0
 15 20  1  0  0  0  0
 17 45  1  0  0  0  0
 18 48  1  0  0  0  0
 19 90  1  0  0  0  0
 20 91  1  0  0  0  0
 21 39  1  0  0  0  0
 21 82  1  0  0  0  0
 21 85  2  0  0  0  0
 22 63  1  0  0  0  0
 22 83  1  0  0  0  0
 22 86  2  0  0  0  0
 23 24  1  0  0  0  0
 23 25  1  0  0  0  0
 23 29  1  0  0  0  0
 23 39  1  0  0  0  0
 26 27  1  0  0  0  0
 26 28  1  0  0  0  0
 26 35  1  0  0  0  0
 26 37  1  0  0  0  0
 29 30  1  0  0  0  0
 29 31  1  0  0  0  0
 29 82  1  0  0  0  0
 32 33  1  0  0  0  0
 32 34  1  0  0  0  0
 32 35  1  0  0  0  0
 32 79  1  0  0  0  0
 35 36  1  0  0  0  0
 35 89  1  0  0  0  0
 37 38  1  0  0  0  0
 37 65  1  0  0  0  0
 37 79  1  0  0  0  0
 39 40  1  0  0  0  0
 39 51  1  0  0  0  0
 41 42  1  0  0  0  0
 41 43  1  0  0  0  0
 41 44  1  0  0  0  0
 41 54  1  0  0  0  0
 45 46  1  0  0  0  0
 45 47  1  0  0  0  0
 45 57  1  0  0  0  0
 48 49  1  0  0  0  0
 48 50  1  0  0  0  0
 48 77  1  0  0  0  0
 51 52  1  0  0  0  0
 51 53  1  0  0  0  0
 51 67  1  0  0  0  0
 54 55  1  0  0  0  0
 54 56  1  0  0  0  0
 54 60  1  0  0  0  0
 57 58  1  0  0  0  0
 57 59  1  0  0  0  0
 57 63  1  0  0  0  0
 60 61  1  0  0  0  0
 60 62  1  0  0  0  0
 60 89  1  0  0  0  0
 63 64  1  0  0  0  0
 63 82  1  0  0  0  0
 65 66  1  0  0  0  0
 65 77  1  0  0  0  0
 65 87  1  0  0  0  0
 67 68  1  0  0  0  0
 67 72  1  0  0  0  0
 67 73  1  0  0  0  0
 68 69  1  0  0  0  0
 68 70  1  0  0  0  0
 68 71  1  0  0  0  0
 73 74  1  0  0  0  0
 73 75  1  0  0  0  0
 73 76  1  0  0  0  0
 77 78  1  0  0  0  0
 77 83  1  0  0  0  0
 79 80  1  0  0  0  0
 79 81  1  0  0  0  0
 83 84  1  0  0  0  0
 87 88  1  0  0  0  0
M  CHG  1  79   1
M  END
>  <PARENT_CMPD_ID>
CHEMBL1915994

>  <STANDARD_TYPE>
IC50

>  <RELATION>
=

>  <STANDARD_VALUE>
5.7000003

>  <STANDARD_UNITS>
nM

>  <COMPOUND_KEY>
28e

>  <PUBMED_ID>
21782431

>  <JOURNAL>
Bioorg.Med.Chem.Lett.

>  <YEAR>
2011

>  <VOLUME>
21

>  <FIRST_PAGE>
6916

>  <Company>
BMS

>  <idx>
338

>  <Model>
Valid

>  <target>
8.2441254

>  <des_pred_mlr>
7.4798899

>  <RF_Canvas>
7.7785559

>  <DNN_Canvas>
7.6984119

>  <pred_CoMFA>
8.6753998

>  <pred_COMSIA>
8.368

>  <pred_abm5>
9.0316963

>  <pred_ff8>
7.7973084

>  <pred_gau6>
8.3078432

>  <CID>
BACE_338

>  <active>
1

>  <des_class_bayes>
1

>  <maacs_class_bayes>
1

>  <radial_class_bayes>
1

>  <dend_class_bayes>
1

>  <molprint_class_bayes>
1

>  <RF_canvas>
1

>  <DNN_canvas>
1

$$$$
22468684_18
  MOE2015           3D

 87 91  0  0  1  0  0  0  0  0999 V2000
   20.7540   13.9040   29.6260 C   0  0  0  0  0  0  0  0  0  0  0  0
   20.1170   13.0260   30.6990 C   0  0  0  0  0  0  0  0  0  0  0  0
   19.1100   12.5530   29.6540 C   0  0  0  0  0  0  0  0  0  0  0  0
   20.0870   13.0170   28.5480 C   0  0  0  0  0  0  0  0  0  0  0  0
   21.0200   11.9730   27.9600 C   0  0  0  0  0  0  0  0  0  0  0  0
   19.4970   13.7810   27.4840 O   0  0  0  0  0  0  0  0  0  0  0  0
   18.8620   13.0730   26.5000 C   0  0  0  0  0  0  0  0  0  0  0  0
   17.9680   13.7880   25.8000 N   0  0  0  0  0  0  0  0  0  0  0  0
   17.3280   13.1510   24.8060 C   0  0  0  0  0  0  0  0  0  0  0  0
   17.5140   11.8150   24.4890 C   0  0  0  0  0  0  0  0  0  0  0  0
   16.7190   11.1690   23.3940 C   0  0  0  0  0  0  0  0  0  0  0  0
   15.3880   10.5170   23.8210 C   0  0  0  0  0  0  0  0  0  0  0  0
   14.4850   11.4930   24.5760 C   0  0  0  0  0  0  0  0  0  0  0  0
   15.6290    9.2830   24.6910 C   0  0  0  0  0  0  0  0  0  0  0  0
   14.6530   10.0740   22.5520 C   0  0  0  0  0  0  0  0  0  0  0  0
   18.4500   11.1090   25.2340 C   0  0  0  0  0  0  0  0  0  0  0  0
   19.1700   11.7450   26.2460 C   0  0  0  0  0  0  0  0  0  0  0  0
   20.2230   11.0360   27.0460 C   0  0  3  0  0  0  0  0  0  0  0  0
   21.2010   10.2370   26.2150 N   0  3  0  0  0  0  0  0  0  0  0  0
   21.9270   10.9960   25.1350 C   0  0  0  0  0  0  0  0  0  0  0  0
   22.3600   10.0150   24.0510 C   0  0  3  0  0  0  0  0  0  0  0  0
   21.2150    9.2450   23.6650 O   0  0  0  0  0  0  0  0  0  0  0  0
   22.9800   10.7300   22.8300 C   0  0  3  0  0  0  0  0  0  0  0  0
   24.0070   11.6800   23.2420 N   0  0  0  0  0  0  0  0  0  0  0  0
   23.7630   13.0350   23.3250 C   0  0  0  0  0  0  0  0  0  0  0  0
   22.6700   13.5370   23.0890 O   0  0  0  0  0  0  0  0  0  0  0  0
   24.9390   13.8450   23.8440 C   0  0  0  0  0  0  0  0  0  0  0  0
   26.1840   13.3080   23.4290 O   0  0  0  0  0  0  0  0  0  0  0  0
   26.6030   13.8380   22.1800 C   0  0  0  0  0  0  0  0  0  0  0  0
   23.4990    9.6890   21.8180 C   0  0  0  0  0  0  0  0  0  0  0  0
   24.3260   10.2830   20.7170 C   0  0  0  0  0  0  0  0  0  0  0  0
   25.7120   10.3130   20.8610 C   0  0  0  0  0  0  0  0  0  0  0  0
   23.7510   10.8500   19.5880 C   0  0  0  0  0  0  0  0  0  0  0  0
   24.5550   11.4400   18.6230 C   0  0  0  0  0  0  0  0  0  0  0  0
   25.9360   11.4780   18.7870 C   0  0  0  0  0  0  0  0  0  0  0  0
   26.5350   10.9120   19.9100 C   0  0  0  0  0  0  0  0  0  0  0  0
   27.9830   11.0150   20.1100 C   0  0  0  0  0  0  0  0  0  0  0  0
   28.7210   12.0110   19.6690 N   0  0  0  0  0  0  0  0  0  0  0  0
   30.0320   11.8490   20.0670 C   0  0  0  0  0  0  0  0  0  0  0  0
   30.2820   10.7130   20.8040 C   0  0  0  0  0  0  0  0  0  0  0  0
   28.8500    9.8190   20.9940 S   0  0  0  0  0  0  0  0  0  0  0  0
   21.8470   13.9250   29.6340 H   0  0  0  0  0  0  0  0  0  0  0  0
   20.3910   14.9390   29.6360 H   0  0  0  0  0  0  0  0  0  0  0  0
   19.6960   13.5560   31.5570 H   0  0  0  0  0  0  0  0  0  0  0  0
   20.7760   12.2310   31.0650 H   0  0  0  0  0  0  0  0  0  0  0  0
   18.1650   13.1100   29.6730 H   0  0  0  0  0  0  0  0  0  0  0  0
   18.8780   11.4840   29.6890 H   0  0  0  0  0  0  0  0  0  0  0  0
   21.5240   11.3880   28.7400 H   0  0  0  0  0  0  0  0  0  0  0  0
   21.8100   12.4920   27.4040 H   0  0  0  0  0  0  0  0  0  0  0  0
   16.6180   13.7680   24.2610 H   0  0  0  0  0  0  0  0  0  0  0  0
   17.3540   10.4260   22.8920 H   0  0  0  0  0  0  0  0  0  0  0  0
   16.5240   11.9300   22.6250 H   0  0  0  0  0  0  0  0  0  0  0  0
   14.9000   11.7690   25.5510 H   0  0  0  0  0  0  0  0  0  0  0  0
   13.4990   11.0510   24.7680 H   0  0  0  0  0  0  0  0  0  0  0  0
   14.3230   12.4120   24.0020 H   0  0  0  0  0  0  0  0  0  0  0  0
   16.0660    9.5450   25.6600 H   0  0  0  0  0  0  0  0  0  0  0  0
   16.3030    8.5730   24.1990 H   0  0  0  0  0  0  0  0  0  0  0  0
   14.6910    8.7550   24.8980 H   0  0  0  0  0  0  0  0  0  0  0  0
   14.4310   10.9270   21.9000 H   0  0  0  0  0  0  0  0  0  0  0  0
   13.7010    9.5850   22.7880 H   0  0  0  0  0  0  0  0  0  0  0  0
   15.2530    9.3620   21.9730 H   0  0  0  0  0  0  0  0  0  0  0  0
   18.6110   10.0560   25.0120 H   0  0  0  0  0  0  0  0  0  0  0  0
   19.7130   10.2910   27.6700 H   0  0  0  0  0  0  0  0  0  0  0  0
   20.6950    9.4830   25.7190 H   0  0  0  0  0  0  0  0  0  0  0  0
   21.8730    9.7500   26.8220 H   0  0  0  0  0  0  0  0  0  0  0  0
   22.7750   11.4950   25.6120 H   0  0  0  0  0  0  0  0  0  0  0  0
   21.2400   11.7370   24.7190 H   0  0  0  0  0  0  0  0  0  0  0  0
   23.0870    9.3160   24.4830 H   0  0  0  0  0  0  0  0  0  0  0  0
   20.7890    9.6620   22.8910 H   0  0  0  0  0  0  0  0  0  0  0  0
   22.1870   11.2940   22.3200 H   0  0  0  0  0  0  0  0  0  0  0  0
   24.9550   11.3730   23.4560 H   0  0  0  0  0  0  0  0  0  0  0  0
   24.8310   14.8940   23.5460 H   0  0  0  0  0  0  0  0  0  0  0  0
   24.9050   13.7960   24.9370 H   0  0  0  0  0  0  0  0  0  0  0  0
   27.5630   13.3860   21.9220 H   0  0  0  0  0  0  0  0  0  0  0  0
   26.7460   14.9210   22.2520 H   0  0  0  0  0  0  0  0  0  0  0  0
   25.8760   13.6080   21.3960 H   0  0  0  0  0  0  0  0  0  0  0  0
   22.6580    9.1370   21.3790 H   0  0  0  0  0  0  0  0  0  0  0  0
   24.1000    8.9310   22.3410 H   0  0  0  0  0  0  0  0  0  0  0  0
   26.1460    9.8850   21.7630 H   0  0  0  0  0  0  0  0  0  0  0  0
   22.6720   10.8490   19.4550 H   0  0  0  0  0  0  0  0  0  0  0  0
   24.1030   11.8900   17.7420 H   0  0  0  0  0  0  0  0  0  0  0  0
   26.5470   11.9660   18.0290 H   0  0  0  0  0  0  0  0  0  0  0  0
   31.0170   12.8840   19.6800 C   0  0  0  0  0  0  0  0  0  0  0  0
   32.0220   12.6370   20.0360 H   0  0  0  0  0  0  0  0  0  0  0  0
   30.7340   13.8530   20.1030 H   0  0  0  0  0  0  0  0  0  0  0  0
   31.0560   12.9810   18.5900 H   0  0  0  0  0  0  0  0  0  0  0  0
   31.2200   10.3760   21.2210 H   0  0  0  0  0  0  0  0  0  0  0  0
  1  2  1  0  0  0  0
  1  4  1  0  0  0  0
  1 42  1  0  0  0  0
  1 43  1  0  0  0  0
  2  3  1  0  0  0  0
  2 44  1  0  0  0  0
  2 45  1  0  0  0  0
  3  4  1  0  0  0  0
  3 46  1  0  0  0  0
  3 47  1  0  0  0  0
  4  5  1  0  0  0  0
  4  6  1  0  0  0  0
  5 18  1  0  0  0  0
  5 48  1  0  0  0  0
  5 49  1  0  0  0  0
  6  7  1  0  0  0  0
  7  8  1  0  0  0  0
  7 17  2  0  0  0  0
  8  9  2  0  0  0  0
  9 10  1  0  0  0  0
  9 50  1  0  0  0  0
 10 11  1  0  0  0  0
 10 16  2  0  0  0  0
 11 12  1  0  0  0  0
 11 51  1  0  0  0  0
 11 52  1  0  0  0  0
 12 13  1  0  0  0  0
 12 14  1  0  0  0  0
 12 15  1  0  0  0  0
 13 53  1  0  0  0  0
 13 54  1  0  0  0  0
 13 55  1  0  0  0  0
 14 56  1  0  0  0  0
 14 57  1  0  0  0  0
 14 58  1  0  0  0  0
 15 59  1  0  0  0  0
 15 60  1  0  0  0  0
 15 61  1  0  0  0  0
 16 17  1  0  0  0  0
 16 62  1  0  0  0  0
 17 18  1  0  0  0  0
 18 19  1  0  0  0  0
 18 63  1  0  0  0  0
 19 20  1  0  0  0  0
 19 64  1  0  0  0  0
 19 65  1  0  0  0  0
 20 21  1  0  0  0  0
 20 66  1  0  0  0  0
 20 67  1  0  0  0  0
 21 22  1  0  0  0  0
 21 23  1  0  0  0  0
 21 68  1  0  0  0  0
 22 69  1  0  0  0  0
 23 24  1  0  0  0  0
 23 30  1  0  0  0  0
 23 70  1  0  0  0  0
 24 25  1  0  0  0  0
 24 71  1  0  0  0  0
 25 26  2  0  0  0  0
 25 27  1  0  0  0  0
 27 28  1  0  0  0  0
 27 72  1  0  0  0  0
 27 73  1  0  0  0  0
 28 29  1  0  0  0  0
 29 74  1  0  0  0  0
 29 75  1  0  0  0  0
 29 76  1  0  0  0  0
 30 31  1  0  0  0  0
 30 77  1  0  0  0  0
 30 78  1  0  0  0  0
 31 32  1  0  0  0  0
 31 33  2  0  0  0  0
 32 36  2  0  0  0  0
 32 79  1  0  0  0  0
 33 34  1  0  0  0  0
 33 80  1  0  0  0  0
 34 35  2  0  0  0  0
 34 81  1  0  0  0  0
 35 36  1  0  0  0  0
 35 82  1  0  0  0  0
 36 37  1  0  0  0  0
 37 38  2  0  0  0  0
 37 41  1  0  0  0  0
 38 39  1  0  0  0  0
 39 40  2  0  0  0  0
 39 83  1  0  0  0  0
 40 41  1  0  0  0  0
 40 87  1  0  0  0  0
 83 84  1  0  0  0  0
 83 85  1  0  0  0  0
 83 86  1  0  0  0  0
M  CHG  1  19   1
M  END
>  <PARENT_CMPD_ID>
22468684_18

>  <STANDARD_TYPE>
IC50

>  <RELATION>
=

>  <STANDARD_VALUE>
5.6999998

>  <STANDARD_UNITS>
nM

>  <COMPOUND_KEY>
18

>  <PUBMED_ID>
22468684

>  <JOURNAL>
J.Med.Chem.

>  <YEAR>
2012

>  <VOLUME>
55

>  <FIRST_PAGE>
9025

>  <Company>
Amgen

>  <idx>
339

>  <Model>
Valid

>  <target>
8.2441254

>  <des_pred_mlr>
7.7378502

>  <RF_Canvas>
8.0163431

>  <DNN_Canvas>
8.1635532

>  <pred_CoMFA>
8.8039999

>  <pred_COMSIA>
8.6389999

>  <pred_abm5>
8.924346

>  <pred_ff8>
8.0846491

>  <pred_gau6>
8.7660828

>  <CID>
BACE_339

>  <active>
1

>  <des_class_bayes>
1

>  <maacs_class_bayes>
1

>  <radial_class_bayes>
1

>  <dend_class_bayes>
1

>  <molprint_class_bayes>
1

>  <RF_canvas>
1

>  <DNN_canvas>
1

$$$$
22468684_36
  MOE2015           3D

 87 91  0  0  1  0  0  0  0  0999 V2000
   20.7540   13.9030   29.6240 C   0  0  0  0  0  0  0  0  0  0  0  0
   20.1170   13.0250   30.6970 C   0  0  0  0  0  0  0  0  0  0  0  0
   19.1110   12.5510   29.6510 C   0  0  0  0  0  0  0  0  0  0  0  0
   20.0880   13.0160   28.5460 C   0  0  0  0  0  0  0  0  0  0  0  0
   21.0210   11.9720   27.9570 C   0  0  0  0  0  0  0  0  0  0  0  0
   19.4980   13.7800   27.4820 O   0  0  0  0  0  0  0  0  0  0  0  0
   18.8630   13.0720   26.4980 C   0  0  0  0  0  0  0  0  0  0  0  0
   17.9690   13.7880   25.7990 N   0  0  0  0  0  0  0  0  0  0  0  0
   17.3280   13.1510   24.8050 C   0  0  0  0  0  0  0  0  0  0  0  0
   17.5140   11.8150   24.4870 C   0  0  0  0  0  0  0  0  0  0  0  0
   16.7180   11.1690   23.3930 C   0  0  0  0  0  0  0  0  0  0  0  0
   15.3870   10.5170   23.8210 C   0  0  0  0  0  0  0  0  0  0  0  0
   14.4840   11.4940   24.5740 C   0  0  0  0  0  0  0  0  0  0  0  0
   15.6280    9.2850   24.6930 C   0  0  0  0  0  0  0  0  0  0  0  0
   14.6530   10.0720   22.5520 C   0  0  0  0  0  0  0  0  0  0  0  0
   18.4510   11.1080   25.2310 C   0  0  0  0  0  0  0  0  0  0  0  0
   19.1710   11.7440   26.2430 C   0  0  0  0  0  0  0  0  0  0  0  0
   20.2240   11.0350   27.0420 C   0  0  3  0  0  0  0  0  0  0  0  0
   21.2020   10.2350   26.2120 N   0  3  0  0  0  0  0  0  0  0  0  0
   21.9280   10.9930   25.1320 C   0  0  0  0  0  0  0  0  0  0  0  0
   22.3630   10.0110   24.0480 C   0  0  3  0  0  0  0  0  0  0  0  0
   21.2170    9.2420   23.6620 O   0  0  0  0  0  0  0  0  0  0  0  0
   22.9880   10.7240   22.8280 C   0  0  3  0  0  0  0  0  0  0  0  0
   24.0060   11.6800   23.2430 N   0  0  0  0  0  0  0  0  0  0  0  0
   23.7530   13.0330   23.3290 C   0  0  0  0  0  0  0  0  0  0  0  0
   22.6580   13.5310   23.0910 O   0  0  0  0  0  0  0  0  0  0  0  0
   24.9220   13.8480   23.8520 C   0  0  0  0  0  0  0  0  0  0  0  0
   26.1660   13.3030   23.4500 O   0  0  0  0  0  0  0  0  0  0  0  0
   26.6170   13.7780   22.1870 C   0  0  0  0  0  0  0  0  0  0  0  0
   23.5270    9.6830   21.8250 C   0  0  0  0  0  0  0  0  0  0  0  0
   24.3480   10.2810   20.7200 C   0  0  0  0  0  0  0  0  0  0  0  0
   25.7360   10.3150   20.8540 C   0  0  0  0  0  0  0  0  0  0  0  0
   23.7620   10.8460   19.5960 C   0  0  0  0  0  0  0  0  0  0  0  0
   24.5570   11.4390   18.6250 C   0  0  0  0  0  0  0  0  0  0  0  0
   25.9400   11.4810   18.7780 C   0  0  0  0  0  0  0  0  0  0  0  0
   26.5500   10.9160   19.8960 C   0  0  0  0  0  0  0  0  0  0  0  0
   28.0010   11.0310   20.0830 C   0  0  0  0  0  0  0  0  0  0  0  0
   28.7260   12.0350   19.6330 N   0  0  0  0  0  0  0  0  0  0  0  0
   30.0370   11.8830   20.0240 C   0  0  0  0  0  0  0  0  0  0  0  0
   30.3110   10.7610   20.7690 C   0  0  0  0  0  0  0  0  0  0  0  0
   28.8880    9.8520   20.9750 S   0  0  0  0  0  0  0  0  0  0  0  0
   21.8480   13.9240   29.6320 H   0  0  0  0  0  0  0  0  0  0  0  0
   20.3920   14.9380   29.6330 H   0  0  0  0  0  0  0  0  0  0  0  0
   19.6950   13.5550   31.5540 H   0  0  0  0  0  0  0  0  0  0  0  0
   20.7760   12.2300   31.0640 H   0  0  0  0  0  0  0  0  0  0  0  0
   18.1660   13.1070   29.6700 H   0  0  0  0  0  0  0  0  0  0  0  0
   18.8810   11.4830   29.6860 H   0  0  0  0  0  0  0  0  0  0  0  0
   21.5250   11.3870   28.7370 H   0  0  0  0  0  0  0  0  0  0  0  0
   21.8110   12.4910   27.4010 H   0  0  0  0  0  0  0  0  0  0  0  0
   16.6170   13.7680   24.2600 H   0  0  0  0  0  0  0  0  0  0  0  0
   17.3530   10.4250   22.8910 H   0  0  0  0  0  0  0  0  0  0  0  0
   16.5230   11.9290   22.6230 H   0  0  0  0  0  0  0  0  0  0  0  0
   14.8990   11.7720   25.5490 H   0  0  0  0  0  0  0  0  0  0  0  0
   13.4990   11.0530   24.7660 H   0  0  0  0  0  0  0  0  0  0  0  0
   14.3230   12.4130   23.9990 H   0  0  0  0  0  0  0  0  0  0  0  0
   16.0650    9.5480   25.6610 H   0  0  0  0  0  0  0  0  0  0  0  0
   16.3020    8.5740   24.2010 H   0  0  0  0  0  0  0  0  0  0  0  0
   14.6890    8.7570   24.9000 H   0  0  0  0  0  0  0  0  0  0  0  0
   14.4310   10.9240   21.8990 H   0  0  0  0  0  0  0  0  0  0  0  0
   13.7000    9.5840   22.7890 H   0  0  0  0  0  0  0  0  0  0  0  0
   15.2520    9.3590   21.9740 H   0  0  0  0  0  0  0  0  0  0  0  0
   18.6120   10.0560   25.0090 H   0  0  0  0  0  0  0  0  0  0  0  0
   19.7140   10.2900   27.6670 H   0  0  0  0  0  0  0  0  0  0  0  0
   20.6950    9.4810   25.7150 H   0  0  0  0  0  0  0  0  0  0  0  0
   21.8730    9.7470   26.8190 H   0  0  0  0  0  0  0  0  0  0  0  0
   22.7750   11.4930   25.6090 H   0  0  0  0  0  0  0  0  0  0  0  0
   21.2410   11.7320   24.7150 H   0  0  0  0  0  0  0  0  0  0  0  0
   23.0880    9.3110   24.4820 H   0  0  0  0  0  0  0  0  0  0  0  0
   20.7990    9.6530   22.8810 H   0  0  0  0  0  0  0  0  0  0  0  0
   22.1960   11.2810   22.3100 H   0  0  0  0  0  0  0  0  0  0  0  0
   24.9560   11.3800   23.4600 H   0  0  0  0  0  0  0  0  0  0  0  0
   24.8060   14.8930   23.5480 H   0  0  0  0  0  0  0  0  0  0  0  0
   24.8790   13.8050   24.9460 H   0  0  0  0  0  0  0  0  0  0  0  0
   27.3930   13.0850   21.8600 H   0  0  0  0  0  0  0  0  0  0  0  0
   25.8100   13.7570   21.4470 H   0  0  0  0  0  0  0  0  0  0  0  0
   27.2400   15.1560   22.2940 C   0  0  0  0  0  0  0  0  0  0  0  0
   27.6920   15.4480   21.3410 H   0  0  0  0  0  0  0  0  0  0  0  0
   28.0130   15.1710   23.0690 H   0  0  0  0  0  0  0  0  0  0  0  0
   26.5010   15.9150   22.5650 H   0  0  0  0  0  0  0  0  0  0  0  0
   22.6950    9.1150   21.3880 H   0  0  0  0  0  0  0  0  0  0  0  0
   24.1370    8.9390   22.3560 H   0  0  0  0  0  0  0  0  0  0  0  0
   26.1780    9.8890   21.7520 H   0  0  0  0  0  0  0  0  0  0  0  0
   22.6820   10.8420   19.4710 H   0  0  0  0  0  0  0  0  0  0  0  0
   24.0970   11.8880   17.7480 H   0  0  0  0  0  0  0  0  0  0  0  0
   26.5420   11.9710   18.0150 H   0  0  0  0  0  0  0  0  0  0  0  0
   30.7630   12.6330   19.7380 H   0  0  0  0  0  0  0  0  0  0  0  0
   31.2590   10.4430   21.1790 H   0  0  0  0  0  0  0  0  0  0  0  0
  1  2  1  0  0  0  0
  1  4  1  0  0  0  0
  1 42  1  0  0  0  0
  1 43  1  0  0  0  0
  2  3  1  0  0  0  0
  2 44  1  0  0  0  0
  2 45  1  0  0  0  0
  3  4  1  0  0  0  0
  3 46  1  0  0  0  0
  3 47  1  0  0  0  0
  4  5  1  0  0  0  0
  4  6  1  0  0  0  0
  5 18  1  0  0  0  0
  5 48  1  0  0  0  0
  5 49  1  0  0  0  0
  6  7  1  0  0  0  0
  7  8  1  0  0  0  0
  7 17  2  0  0  0  0
  8  9  2  0  0  0  0
  9 10  1  0  0  0  0
  9 50  1  0  0  0  0
 10 11  1  0  0  0  0
 10 16  2  0  0  0  0
 11 12  1  0  0  0  0
 11 51  1  0  0  0  0
 11 52  1  0  0  0  0
 12 13  1  0  0  0  0
 12 14  1  0  0  0  0
 12 15  1  0  0  0  0
 13 53  1  0  0  0  0
 13 54  1  0  0  0  0
 13 55  1  0  0  0  0
 14 56  1  0  0  0  0
 14 57  1  0  0  0  0
 14 58  1  0  0  0  0
 15 59  1  0  0  0  0
 15 60  1  0  0  0  0
 15 61  1  0  0  0  0
 16 17  1  0  0  0  0
 16 62  1  0  0  0  0
 17 18  1  0  0  0  0
 18 19  1  0  0  0  0
 18 63  1  0  0  0  0
 19 20  1  0  0  0  0
 19 64  1  0  0  0  0
 19 65  1  0  0  0  0
 20 21  1  0  0  0  0
 20 66  1  0  0  0  0
 20 67  1  0  0  0  0
 21 22  1  0  0  0  0
 21 23  1  0  0  0  0
 21 68  1  0  0  0  0
 22 69  1  0  0  0  0
 23 24  1  0  0  0  0
 23 30  1  0  0  0  0
 23 70  1  0  0  0  0
 24 25  1  0  0  0  0
 24 71  1  0  0  0  0
 25 26  2  0  0  0  0
 25 27  1  0  0  0  0
 27 28  1  0  0  0  0
 27 72  1  0  0  0  0
 27 73  1  0  0  0  0
 28 29  1  0  0  0  0
 29 74  1  0  0  0  0
 29 75  1  0  0  0  0
 29 76  1  0  0  0  0
 30 31  1  0  0  0  0
 30 80  1  0  0  0  0
 30 81  1  0  0  0  0
 31 32  1  0  0  0  0
 31 33  2  0  0  0  0
 32 36  2  0  0  0  0
 32 82  1  0  0  0  0
 33 34  1  0  0  0  0
 33 83  1  0  0  0  0
 34 35  2  0  0  0  0
 34 84  1  0  0  0  0
 35 36  1  0  0  0  0
 35 85  1  0  0  0  0
 36 37  1  0  0  0  0
 37 38  2  0  0  0  0
 37 41  1  0  0  0  0
 38 39  1  0  0  0  0
 39 40  2  0  0  0  0
 39 86  1  0  0  0  0
 40 41  1  0  0  0  0
 40 87  1  0  0  0  0
 76 77  1  0  0  0  0
 76 78  1  0  0  0  0
 76 79  1  0  0  0  0
M  CHG  1  19   1
M  END
>  <PARENT_CMPD_ID>
22468684_36

>  <STANDARD_TYPE>
IC50

>  <RELATION>
=

>  <STANDARD_VALUE>
5.6999998

>  <STANDARD_UNITS>
nM

>  <COMPOUND_KEY>
36

>  <PUBMED_ID>
22468684

>  <JOURNAL>
J.Med.Chem.

>  <YEAR>
2012

>  <VOLUME>
55

>  <FIRST_PAGE>
9025

>  <Company>
Amgen

>  <idx>
340

>  <Model>
Valid

>  <target>
8.2441254

>  <des_pred_mlr>
7.7297001

>  <RF_Canvas>
8.026823

>  <DNN_Canvas>
8.0379457

>  <pred_CoMFA>
8.9624996

>  <pred_COMSIA>
8.7079

>  <pred_abm5>
9.0347233

>  <pred_ff8>
8.3606157

>  <pred_gau6>
8.8622475

>  <CID>
BACE_340

>  <active>
1

>  <des_class_bayes>
1

>  <maacs_class_bayes>
1

>  <radial_class_bayes>
1

>  <dend_class_bayes>
1

>  <molprint_class_bayes>
1

>  <RF_canvas>
1

>  <DNN_canvas>
1

$$$$
22468639_1
  MOE2015           3D

 74 77  0  0  1  0  0  0  0  0999 V2000
   21.0880   13.8390   29.2060 C   0  0  0  0  0  0  0  0  0  0  0  0
   22.1820   13.8440   29.2010 H   0  0  0  0  0  0  0  0  0  0  0  0
   20.7410   14.8790   29.1720 H   0  0  0  0  0  0  0  0  0  0  0  0
   20.4520   13.0230   30.3260 C   0  0  0  0  0  0  0  0  0  0  0  0
   20.0450   13.5990   31.1610 H   0  0  0  0  0  0  0  0  0  0  0  0
   21.1060   12.2390   30.7250 H   0  0  0  0  0  0  0  0  0  0  0  0
   19.4290   12.5100   29.3160 C   0  0  0  0  0  0  0  0  0  0  0  0
   18.4880   13.0740   29.3200 H   0  0  0  0  0  0  0  0  0  0  0  0
   19.1910   11.4460   29.4010 H   0  0  0  0  0  0  0  0  0  0  0  0
   20.3950   12.9140   28.1780 C   0  0  0  0  0  0  0  0  0  0  0  0
   21.3110   11.8380   27.6240 C   0  0  0  0  0  0  0  0  0  0  0  0
   21.8100   11.2740   28.4220 H   0  0  0  0  0  0  0  0  0  0  0  0
   22.1080   12.3310   27.0530 H   0  0  0  0  0  0  0  0  0  0  0  0
   19.7980   13.6380   27.0910 O   0  0  0  0  0  0  0  0  0  0  0  0
   19.1440   12.8990   26.1440 C   0  0  0  0  0  0  0  0  0  0  0  0
   18.2370   13.5920   25.4390 N   0  0  0  0  0  0  0  0  0  0  0  0
   17.5750   12.9250   24.4800 C   0  0  0  0  0  0  0  0  0  0  0  0
   16.8600   13.5280   23.9250 H   0  0  0  0  0  0  0  0  0  0  0  0
   17.7500   11.5780   24.2040 C   0  0  0  0  0  0  0  0  0  0  0  0
   16.9440   10.9060   23.1320 C   0  0  0  0  0  0  0  0  0  0  0  0
   17.5490   10.0990   22.6940 H   0  0  0  0  0  0  0  0  0  0  0  0
   16.8130   11.6260   22.3110 H   0  0  0  0  0  0  0  0  0  0  0  0
   15.5670   10.3520   23.5530 C   0  0  0  0  0  0  0  0  0  0  0  0
   14.8610    9.8410   22.2930 C   0  0  0  0  0  0  0  0  0  0  0  0
   14.7060   10.6470   21.5660 H   0  0  0  0  0  0  0  0  0  0  0  0
   13.8780    9.4160   22.5270 H   0  0  0  0  0  0  0  0  0  0  0  0
   15.4480    9.0580   21.7980 H   0  0  0  0  0  0  0  0  0  0  0  0
   14.6810   11.4240   24.1880 C   0  0  0  0  0  0  0  0  0  0  0  0
   14.5870   12.3010   23.5380 H   0  0  0  0  0  0  0  0  0  0  0  0
   15.0680   11.7570   25.1570 H   0  0  0  0  0  0  0  0  0  0  0  0
   13.6690   11.0430   24.3690 H   0  0  0  0  0  0  0  0  0  0  0  0
   15.7180    9.1850   24.5280 C   0  0  0  0  0  0  0  0  0  0  0  0
   16.3660    8.4030   24.1170 H   0  0  0  0  0  0  0  0  0  0  0  0
   14.7480    8.7240   24.7490 H   0  0  0  0  0  0  0  0  0  0  0  0
   16.1450    9.5050   25.4840 H   0  0  0  0  0  0  0  0  0  0  0  0
   18.6980   10.8930   24.9560 C   0  0  0  0  0  0  0  0  0  0  0  0
   18.8500    9.8320   24.7680 H   0  0  0  0  0  0  0  0  0  0  0  0
   19.4430   11.5610   25.9300 C   0  0  0  0  0  0  0  0  0  0  0  0
   20.5080   10.8800   26.7380 C   0  0  3  0  0  0  0  0  0  0  0  0
   20.0040   10.1520   27.3870 H   0  0  0  0  0  0  0  0  0  0  0  0
   21.4810   10.0600   25.9230 N   0  3  0  0  0  0  0  0  0  0  0  0
   20.9710    9.3000   25.4410 H   0  0  0  0  0  0  0  0  0  0  0  0
   22.1460    9.5800   26.5430 H   0  0  0  0  0  0  0  0  0  0  0  0
   22.2290   10.7880   24.8360 C   0  0  0  0  0  0  0  0  0  0  0  0
   23.0550   11.3190   25.3150 H   0  0  0  0  0  0  0  0  0  0  0  0
   21.5410   11.4990   24.3690 H   0  0  0  0  0  0  0  0  0  0  0  0
   22.7140    9.7640   23.8120 C   0  0  3  0  0  0  0  0  0  0  0  0
   23.3840    9.0440   24.2980 H   0  0  0  0  0  0  0  0  0  0  0  0
   21.5680    9.0360   23.3470 O   0  0  0  0  0  0  0  0  0  0  0  0
   21.1310    9.5360   22.6320 H   0  0  0  0  0  0  0  0  0  0  0  0
   23.4330   10.4520   22.6390 C   0  0  3  0  0  0  0  0  0  0  0  0
   22.7110   11.1480   22.1920 H   0  0  0  0  0  0  0  0  0  0  0  0
   24.6010   11.2190   23.0670 N   0  0  0  0  0  0  0  0  0  0  0  0
   25.4550   10.7260   23.3110 H   0  0  0  0  0  0  0  0  0  0  0  0
   24.5940   12.5960   23.0950 C   0  0  0  0  0  0  0  0  0  0  0  0
   23.5850   13.2620   22.9000 O   0  0  0  0  0  0  0  0  0  0  0  0
   25.9490   13.2080   23.3140 C   0  0  0  0  0  0  0  0  0  0  0  0
   26.5340   12.6130   24.0220 H   0  0  0  0  0  0  0  0  0  0  0  0
   25.8310   14.2160   23.7230 H   0  0  0  0  0  0  0  0  0  0  0  0
   26.4790   13.2600   22.3600 H   0  0  0  0  0  0  0  0  0  0  0  0
   23.8370    9.4480   21.5440 C   0  0  0  0  0  0  0  0  0  0  0  0
   22.9730    8.8640   21.2050 H   0  0  0  0  0  0  0  0  0  0  0  0
   24.5570    8.7240   21.9490 H   0  0  0  0  0  0  0  0  0  0  0  0
   24.4210   10.1540   20.3530 C   0  0  0  0  0  0  0  0  0  0  0  0
   25.7700   10.0110   20.0420 C   0  0  0  0  0  0  0  0  0  0  0  0
   26.4100    9.3520   20.6240 H   0  0  0  0  0  0  0  0  0  0  0  0
   26.3210   10.7220   18.9850 C   0  0  0  0  0  0  0  0  0  0  0  0
   27.3760   10.6110   18.7480 H   0  0  0  0  0  0  0  0  0  0  0  0
   25.5300   11.5800   18.2310 C   0  0  0  0  0  0  0  0  0  0  0  0
   25.9660   12.1380   17.4070 H   0  0  0  0  0  0  0  0  0  0  0  0
   24.1820   11.7210   18.5290 C   0  0  0  0  0  0  0  0  0  0  0  0
   23.5630   12.3900   17.9370 H   0  0  0  0  0  0  0  0  0  0  0  0
   23.6300   11.0050   19.5790 C   0  0  0  0  0  0  0  0  0  0  0  0
   22.5720   11.1310   19.7960 H   0  0  0  0  0  0  0  0  0  0  0  0
  1  2  1  0  0  0  0
  1  3  1  0  0  0  0
  1  4  1  0  0  0  0
  1 10  1  0  0  0  0
  4  5  1  0  0  0  0
  4  6  1  0  0  0  0
  4  7  1  0  0  0  0
  7  8  1  0  0  0  0
  7  9  1  0  0  0  0
  7 10  1  0  0  0  0
 10 11  1  0  0  0  0
 10 14  1  0  0  0  0
 11 12  1  0  0  0  0
 11 13  1  0  0  0  0
 11 39  1  0  0  0  0
 14 15  1  0  0  0  0
 15 16  1  0  0  0  0
 15 38  2  0  0  0  0
 16 17  2  0  0  0  0
 17 18  1  0  0  0  0
 17 19  1  0  0  0  0
 19 20  1  0  0  0  0
 19 36  2  0  0  0  0
 20 21  1  0  0  0  0
 20 22  1  0  0  0  0
 20 23  1  0  0  0  0
 23 24  1  0  0  0  0
 23 28  1  0  0  0  0
 23 32  1  0  0  0  0
 24 25  1  0  0  0  0
 24 26  1  0  0  0  0
 24 27  1  0  0  0  0
 28 29  1  0  0  0  0
 28 30  1  0  0  0  0
 28 31  1  0  0  0  0
 32 33  1  0  0  0  0
 32 34  1  0  0  0  0
 32 35  1  0  0  0  0
 36 37  1  0  0  0  0
 36 38  1  0  0  0  0
 38 39  1  0  0  0  0
 39 40  1  0  0  0  0
 39 41  1  0  0  0  0
 41 42  1  0  0  0  0
 41 43  1  0  0  0  0
 41 44  1  0  0  0  0
 44 45  1  0  0  0  0
 44 46  1  0  0  0  0
 44 47  1  0  0  0  0
 47 48  1  0  0  0  0
 47 49  1  0  0  0  0
 47 51  1  0  0  0  0
 49 50  1  0  0  0  0
 51 52  1  0  0  0  0
 51 53  1  0  0  0  0
 51 61  1  0  0  0  0
 53 54  1  0  0  0  0
 53 55  1  0  0  0  0
 55 56  2  0  0  0  0
 55 57  1  0  0  0  0
 57 58  1  0  0  0  0
 57 59  1  0  0  0  0
 57 60  1  0  0  0  0
 61 62  1  0  0  0  0
 61 63  1  0  0  0  0
 61 64  1  0  0  0  0
 64 65  1  0  0  0  0
 64 73  2  0  0  0  0
 65 66  1  0  0  0  0
 65 67  2  0  0  0  0
 67 68  1  0  0  0  0
 67 69  1  0  0  0  0
 69 70  1  0  0  0  0
 69 71  2  0  0  0  0
 71 72  1  0  0  0  0
 71 73  1  0  0  0  0
 73 74  1  0  0  0  0
M  CHG  1  41   1
M  END
>  <PARENT_CMPD_ID>
22468639_1

>  <STANDARD_TYPE>
IC50

>  <RELATION>
=

>  <STANDARD_VALUE>
5.8000002

>  <STANDARD_UNITS>
nM

>  <COMPOUND_KEY>
1

>  <PUBMED_ID>
22468639

>  <JOURNAL>
J. Med. Chem.

>  <YEAR>
2012

>  <VOLUME>
55

>  <FIRST_PAGE>
9009

>  <Company>
Amgen

>  <idx>
341

>  <Model>
Valid

>  <target>
8.2365723

>  <des_pred_mlr>
6.79387

>  <RF_Canvas>
7.784791

>  <DNN_Canvas>
7.5087209

>  <pred_CoMFA>
7.256

>  <pred_COMSIA>
7.3297

>  <pred_abm5>
7.3168278

>  <pred_ff8>
7.8338184

>  <pred_gau6>
7.2423501

>  <CID>
BACE_341

>  <active>
1

>  <des_class_bayes>
0

>  <maacs_class_bayes>
1

>  <radial_class_bayes>
1

>  <dend_class_bayes>
1

>  <molprint_class_bayes>
1

>  <RF_canvas>
1

>  <DNN_canvas>
1

$$$$
CHEMBL1916159
  MOE2015           3D

 98102  0  0  1  0  0  0  0  0999 V2000
   25.1250   20.4600   25.3770 C   0  0  0  0  0  0  0  0  0  0  0  0
   25.0110   21.5340   25.3990 H   0  0  0  0  0  0  0  0  0  0  0  0
   24.5530   19.6790   26.3820 C   0  0  0  0  0  0  0  0  0  0  0  0
   23.9970   20.1390   27.1860 H   0  0  0  0  0  0  0  0  0  0  0  0
   25.8500   19.8520   24.3350 C   0  0  0  0  0  0  0  0  0  0  0  0
   23.1870   11.8460   20.3250 C   0  0  0  0  0  0  0  0  0  0  0  0
   26.2880   20.4650   23.5610 H   0  0  0  0  0  0  0  0  0  0  0  0
   22.2260   12.1450   20.7180 H   0  0  0  0  0  0  0  0  0  0  0  0
   25.1040   10.4330   20.3920 C   0  0  0  0  0  0  0  0  0  0  0  0
   24.7120   18.2920   26.3300 C   0  0  0  0  0  0  0  0  0  0  0  0
   25.6580    9.6180   20.8340 H   0  0  0  0  0  0  0  0  0  0  0  0
   24.9360   12.1640   18.6930 C   0  0  0  0  0  0  0  0  0  0  0  0
   24.2700   17.6760   27.0990 H   0  0  0  0  0  0  0  0  0  0  0  0
   25.3360   12.6830   17.8350 H   0  0  0  0  0  0  0  0  0  0  0  0
   26.0110   18.4630   24.2890 C   0  0  0  0  0  0  0  0  0  0  0  0
   23.8700   10.7920   20.9260 C   0  0  0  0  0  0  0  0  0  0  0  0
   23.7120   12.5220   19.2320 C   0  0  0  0  0  0  0  0  0  0  0  0
   26.5700   17.9990   23.4900 H   0  0  0  0  0  0  0  0  0  0  0  0
   25.6390   11.1160   19.2860 C   0  0  0  0  0  0  0  0  0  0  0  0
   27.1750   13.4880   23.6660 C   0  0  0  0  0  0  0  0  0  0  0  0
   29.7210   15.1070   22.9300 C   0  0  0  0  0  0  0  0  0  0  0  0
   23.6640   13.1990   23.8080 C   0  0  0  0  0  0  0  0  0  0  0  0
   27.2350   14.1150   21.3400 C   0  0  0  0  0  0  0  0  0  0  0  0
   27.5580   15.1550   21.2900 H   0  0  0  0  0  0  0  0  0  0  0  0
   27.3370   13.6550   20.3570 H   0  0  0  0  0  0  0  0  0  0  0  0
   20.4890   11.9020   25.1990 C   0  0  0  0  0  0  0  0  0  0  0  0
   25.4350   17.6910   25.2960 C   0  0  0  0  0  0  0  0  0  0  0  0
   20.8500   12.9300   25.1550 H   0  0  0  0  0  0  0  0  0  0  0  0
   20.0890   11.6150   24.2260 H   0  0  0  0  0  0  0  0  0  0  0  0
   25.8080   13.9890   21.8800 C   0  0  0  0  0  0  0  0  0  0  0  0
   25.3190   13.1130   21.4530 H   0  0  0  0  0  0  0  0  0  0  0  0
   25.2320   14.8820   21.6350 H   0  0  0  0  0  0  0  0  0  0  0  0
   20.1540   11.0320   27.3770 C   0  0  0  0  0  0  0  0  0  0  0  0
   19.4610   10.5130   28.0390 H   0  0  0  0  0  0  0  0  0  0  0  0
   20.7690   11.7180   27.9600 H   0  0  0  0  0  0  0  0  0  0  0  0
   19.4070   11.7700   26.2720 C   0  0  3  0  0  0  0  0  0  0  0  0
   18.9590   12.7220   26.5570 H   0  0  0  0  0  0  0  0  0  0  0  0
   21.6380   10.9530   25.6010 C   0  0  3  0  0  0  0  0  0  0  0  0
   22.4980   11.5110   25.9720 H   0  0  0  0  0  0  0  0  0  0  0  0
   27.9980   13.3320   22.4170 C   0  0  3  0  0  0  0  0  0  0  0  0
   31.1870   15.4700   22.9610 C   0  0  0  0  0  0  0  0  0  0  0  0
   31.7790   14.6180   22.6270 H   0  0  0  0  0  0  0  0  0  0  0  0
   31.4740   15.7350   23.9780 H   0  0  0  0  0  0  0  0  0  0  0  0
   31.3650   16.3180   22.3000 H   0  0  0  0  0  0  0  0  0  0  0  0
   23.2770   10.0620   22.1220 C   0  0  0  0  0  0  0  0  0  0  0  0
   24.0490    9.4200   22.5450 H   0  0  0  0  0  0  0  0  0  0  0  0
   22.4480    9.4490   21.7690 H   0  0  0  0  0  0  0  0  0  0  0  0
   27.8650   11.8720   21.9640 C   0  0  3  0  0  0  0  0  0  0  0  0
   27.0780   11.8930   20.6780 C   0  0  0  0  0  0  0  0  0  0  0  0
   26.9540   10.8740   20.3110 H   0  0  0  0  0  0  0  0  0  0  0  0
   27.8170   12.7110   19.6490 C   0  0  0  0  0  0  0  0  0  0  0  0
   27.2490   12.7260   18.7200 H   0  0  0  0  0  0  0  0  0  0  0  0
   28.7970   12.2680   19.4690 H   0  0  0  0  0  0  0  0  0  0  0  0
   25.5880   16.1920   25.2840 C   0  0  0  0  0  0  0  0  0  0  0  0
   27.9410   13.7300   20.0160 H   0  0  0  0  0  0  0  0  0  0  0  0
   26.0980   12.3350   20.8580 H   0  0  0  0  0  0  0  0  0  0  0  0
   25.5430   15.8240   26.3090 H   0  0  0  0  0  0  0  0  0  0  0  0
   27.2880   11.3610   22.7350 H   0  0  0  0  0  0  0  0  0  0  0  0
   26.5550   15.9390   24.8500 H   0  0  0  0  0  0  0  0  0  0  0  0
   24.4840   15.5150   24.4650 C   0  0  0  0  0  0  0  0  0  0  0  0
   24.4070   15.9970   23.4900 H   0  0  0  0  0  0  0  0  0  0  0  0
   23.5340   15.6050   24.9910 H   0  0  0  0  0  0  0  0  0  0  0  0
   24.8240   14.0400   24.2780 C   0  0  3  0  0  0  0  0  0  0  0  0
   25.1090   13.7090   25.2770 H   0  0  0  0  0  0  0  0  0  0  0  0
   22.2260   10.1380   24.4290 C   0  0  3  0  0  0  0  0  0  0  0  0
   23.1120    9.6280   24.8060 H   0  0  0  0  0  0  0  0  0  0  0  0
   29.0960   11.0120   21.7030 C   0  0  0  0  0  0  0  0  0  0  0  0
   29.7880   11.0740   22.5430 H   0  0  0  0  0  0  0  0  0  0  0  0
   29.6680   11.3510   20.8390 H   0  0  0  0  0  0  0  0  0  0  0  0
   28.7150   10.0040   21.5410 H   0  0  0  0  0  0  0  0  0  0  0  0
   22.7500   10.9840   23.2440 C   0  0  3  0  0  0  0  0  0  0  0  0
   21.9310   11.5870   22.8520 H   0  0  0  0  0  0  0  0  0  0  0  0
   21.0040   10.0590   26.6180 N   0  3  0  0  0  0  0  0  0  0  0  0
   20.4440    9.3410   26.1810 H   0  0  0  0  0  0  0  0  0  0  0  0
   21.6960    9.6290   27.2150 H   0  0  0  0  0  0  0  0  0  0  0  0
   25.9260   13.8440   23.3410 N   0  0  0  0  0  0  0  0  0  0  0  0
   29.3680   13.8690   22.5250 N   0  0  0  0  0  0  0  0  0  0  0  0
   30.1200   13.2450   22.2690 H   0  0  0  0  0  0  0  0  0  0  0  0
   23.8270   11.8630   23.7040 N   0  0  0  0  0  0  0  0  0  0  0  0
   24.7190   11.4580   23.9510 H   0  0  0  0  0  0  0  0  0  0  0  0
   27.5680   13.2710   24.7900 O   0  0  0  0  0  0  0  0  0  0  0  0
   28.9360   15.9740   23.2820 O   0  0  0  0  0  0  0  0  0  0  0  0
   22.5950   13.7100   23.5250 O   0  0  0  0  0  0  0  0  0  0  0  0
   21.2320    9.2070   23.9900 O   0  0  0  0  0  0  0  0  0  0  0  0
   20.4810    9.7130   23.6710 H   0  0  0  0  0  0  0  0  0  0  0  0
   18.3920   10.8640   25.7970 O   0  0  0  0  0  0  0  0  0  0  0  0
   23.0210   13.5220   18.6820 F   0  0  0  0  0  0  0  0  0  0  0  0
   26.8390   10.7710   18.7780 F   0  0  0  0  0  0  0  0  0  0  0  0
   14.8990   12.2780   24.0200 C   0  0  0  0  0  0  0  0  0  0  0  0
   13.9720   12.6200   23.5660 H   0  0  0  0  0  0  0  0  0  0  0  0
   14.9740   11.0050   24.5810 N   0  0  0  0  0  0  0  0  0  0  0  0
   16.1670   10.5700   25.1630 C   0  0  0  0  0  0  0  0  0  0  0  0
   16.2150    9.5760   25.5980 H   0  0  0  0  0  0  0  0  0  0  0  0
   17.2860   11.4070   25.2000 C   0  0  0  0  0  0  0  0  0  0  0  0
   17.2110   12.6750   24.6210 C   0  0  0  0  0  0  0  0  0  0  0  0
   18.0620   13.3480   24.5940 H   0  0  0  0  0  0  0  0  0  0  0  0
   16.0180   13.1090   24.0360 C   0  0  0  0  0  0  0  0  0  0  0  0
   15.9590   14.0990   23.5880 H   0  0  0  0  0  0  0  0  0  0  0  0
  1  2  1  0  0  0  0
  1  3  2  0  0  0  0
  1  5  1  0  0  0  0
  3  4  1  0  0  0  0
  3 10  1  0  0  0  0
  5  7  1  0  0  0  0
  5 15  2  0  0  0  0
  6  8  1  0  0  0  0
  6 16  2  0  0  0  0
  6 17  1  0  0  0  0
  9 11  1  0  0  0  0
  9 16  1  0  0  0  0
  9 19  2  0  0  0  0
 10 13  1  0  0  0  0
 10 27  2  0  0  0  0
 12 14  1  0  0  0  0
 12 17  2  0  0  0  0
 12 19  1  0  0  0  0
 15 18  1  0  0  0  0
 15 27  1  0  0  0  0
 16 45  1  0  0  0  0
 17 87  1  0  0  0  0
 19 88  1  0  0  0  0
 20 40  1  0  0  0  0
 20 76  1  0  0  0  0
 20 81  2  0  0  0  0
 21 41  1  0  0  0  0
 21 77  1  0  0  0  0
 21 82  2  0  0  0  0
 22 63  1  0  0  0  0
 22 79  1  0  0  0  0
 22 83  2  0  0  0  0
 23 24  1  0  0  0  0
 23 25  1  0  0  0  0
 23 30  1  0  0  0  0
 23 40  1  0  0  0  0
 26 28  1  0  0  0  0
 26 29  1  0  0  0  0
 26 36  1  0  0  0  0
 26 38  1  0  0  0  0
 27 54  1  0  0  0  0
 30 31  1  0  0  0  0
 30 32  1  0  0  0  0
 30 76  1  0  0  0  0
 33 34  1  0  0  0  0
 33 35  1  0  0  0  0
 33 36  1  0  0  0  0
 33 73  1  0  0  0  0
 36 37  1  0  0  0  0
 36 86  1  0  0  0  0
 38 39  1  0  0  0  0
 38 65  1  0  0  0  0
 38 73  1  0  0  0  0
 40 48  1  0  0  0  0
 40 77  1  0  0  0  0
 41 42  1  0  0  0  0
 41 43  1  0  0  0  0
 41 44  1  0  0  0  0
 45 46  1  0  0  0  0
 45 47  1  0  0  0  0
 45 71  1  0  0  0  0
 48 49  1  0  0  0  0
 48 58  1  0  0  0  0
 48 67  1  0  0  0  0
 49 50  1  0  0  0  0
 49 51  1  0  0  0  0
 49 56  1  0  0  0  0
 51 52  1  0  0  0  0
 51 53  1  0  0  0  0
 51 55  1  0  0  0  0
 54 57  1  0  0  0  0
 54 59  1  0  0  0  0
 54 60  1  0  0  0  0
 60 61  1  0  0  0  0
 60 62  1  0  0  0  0
 60 63  1  0  0  0  0
 63 64  1  0  0  0  0
 63 76  1  0  0  0  0
 65 66  1  0  0  0  0
 65 71  1  0  0  0  0
 65 84  1  0  0  0  0
 67 68  1  0  0  0  0
 67 69  1  0  0  0  0
 67 70  1  0  0  0  0
 71 72  1  0  0  0  0
 71 79  1  0  0  0  0
 73 74  1  0  0  0  0
 73 75  1  0  0  0  0
 77 78  1  0  0  0  0
 79 80  1  0  0  0  0
 84 85  1  0  0  0  0
 86 94  1  0  0  0  0
 89 90  1  0  0  0  0
 89 91  1  0  0  0  0
 89 97  2  0  0  0  0
 91 92  2  0  0  0  0
 92 93  1  0  0  0  0
 92 94  1  0  0  0  0
 94 95  2  0  0  0  0
 95 96  1  0  0  0  0
 95 97  1  0  0  0  0
 97 98  1  0  0  0  0
M  CHG  1  73   1
M  END
>  <PARENT_CMPD_ID>
CHEMBL1916159

>  <STANDARD_TYPE>
IC50

>  <RELATION>
=

>  <STANDARD_VALUE>
5.9000001

>  <STANDARD_UNITS>
nM

>  <COMPOUND_KEY>
28v

>  <PUBMED_ID>
21782431

>  <JOURNAL>
Bioorg.Med.Chem.Lett.

>  <YEAR>
2011

>  <VOLUME>
21

>  <FIRST_PAGE>
6916

>  <Company>
BMS

>  <idx>
342

>  <Model>
Valid

>  <target>
8.2291479

>  <des_pred_mlr>
7.8961101

>  <RF_Canvas>
7.836648

>  <DNN_Canvas>
8.0846443

>  <pred_CoMFA>
9.2461996

>  <pred_COMSIA>
8.9709997

>  <pred_abm5>
9.2328262

>  <pred_ff8>
8.0441084

>  <pred_gau6>
9.4597244

>  <CID>
BACE_342

>  <active>
1

>  <des_class_bayes>
1

>  <maacs_class_bayes>
1

>  <radial_class_bayes>
0

>  <dend_class_bayes>
1

>  <molprint_class_bayes>
1

>  <RF_canvas>
1

>  <DNN_canvas>
1

$$$$
23769639_20
  MOE2015           3D

 92 98  0  0  1  0  0  0  0  0999 V2000
   19.1800   12.3620   29.6390 C   0  0  0  0  0  0  0  0  0  0  0  0
   20.1750   12.9460   30.6400 C   0  0  0  0  0  0  0  0  0  0  0  0
   20.6900   13.8620   29.5330 C   0  0  0  0  0  0  0  0  0  0  0  0
   20.0740   12.8950   28.4860 C   0  0  0  0  0  0  0  0  0  0  0  0
   21.0890   11.9310   27.8840 C   0  0  0  0  0  0  0  0  0  0  0  0
   19.3690   13.5790   27.4280 O   0  0  0  0  0  0  0  0  0  0  0  0
   18.8010   12.7880   26.4650 C   0  0  0  0  0  0  0  0  0  0  0  0
   17.7820   13.3540   25.7120 C   0  0  0  0  0  0  0  0  0  0  0  0
   17.1540   12.6090   24.7240 C   0  0  0  0  0  0  0  0  0  0  0  0
   17.5370   11.2930   24.4860 C   0  0  0  0  0  0  0  0  0  0  0  0
   16.8520   10.4740   23.4330 C   0  0  0  0  0  0  0  0  0  0  0  0
   15.9010    9.4590   24.0330 C   0  0  0  0  0  0  0  0  0  0  0  0
   18.5590   10.7360   25.2520 C   0  0  0  0  0  0  0  0  0  0  0  0
   19.2240   11.4830   26.2280 C   0  0  0  0  0  0  0  0  0  0  0  0
   20.3530   10.8960   27.0300 C   0  0  3  0  0  0  0  0  0  0  0  0
   21.3680   10.1410   26.2070 N   0  3  0  0  0  0  0  0  0  0  0  0
   22.0410   10.9000   25.0960 C   0  0  0  0  0  0  0  0  0  0  0  0
   22.4740    9.8910   24.0340 C   0  0  3  0  0  0  0  0  0  0  0  0
   21.3250    9.1410   23.6340 O   0  0  0  0  0  0  0  0  0  0  0  0
   23.1130   10.5620   22.8140 C   0  0  3  0  0  0  0  0  0  0  0  0
   23.6200    9.5100   21.8080 C   0  0  0  0  0  0  0  0  0  0  0  0
   24.3550   10.1110   20.6420 C   0  0  0  0  0  0  0  0  0  0  0  0
   25.7490   10.0810   20.6070 C   0  0  0  0  0  0  0  0  0  0  0  0
   23.6690   10.7180   19.5970 C   0  0  0  0  0  0  0  0  0  0  0  0
   24.3650   11.2830   18.5370 C   0  0  0  0  0  0  0  0  0  0  0  0
   25.7510   11.2420   18.5070 C   0  0  0  0  0  0  0  0  0  0  0  0
   26.4560   10.6320   19.5400 C   0  0  0  0  0  0  0  0  0  0  0  0
   27.9420   10.4540   19.4620 C   0  0  0  0  0  0  0  0  0  0  0  0
   28.7650   11.7320   19.4690 C   0  0  0  0  0  0  0  0  0  0  0  0
   28.7080   12.4570   20.8010 C   0  0  0  0  0  0  0  0  0  0  0  0
   27.9630   13.7790   20.7000 C   0  0  0  0  0  0  0  0  0  0  0  0
   27.2370   14.0280   21.9280 N   0  0  0  0  0  0  0  0  0  0  0  0
   25.9940   13.4800   22.0250 C   0  0  0  0  0  0  0  0  0  0  0  0
   27.8270   14.7430   22.9710 C   0  0  0  0  0  0  0  0  0  0  0  0
   28.9580   15.2190   22.9010 O   0  0  0  0  0  0  0  0  0  0  0  0
   27.0030   14.8770   24.2350 C   0  0  0  0  0  0  0  0  0  0  0  0
   25.8200   14.2350   24.2960 C   0  0  0  0  0  0  0  0  0  0  0  0
   25.3250   13.5180   23.1720 C   0  0  0  0  0  0  0  0  0  0  0  0
   24.0480   12.8160   23.1110 C   0  0  0  0  0  0  0  0  0  0  0  0
   23.0310   13.4240   22.8210 O   0  0  0  0  0  0  0  0  0  0  0  0
   24.1860   11.4520   23.2130 N   0  0  0  0  0  0  0  0  0  0  0  0
   18.1900   12.8300   29.6830 H   0  0  0  0  0  0  0  0  0  0  0  0
   19.0510   11.2780   29.7000 H   0  0  0  0  0  0  0  0  0  0  0  0
   20.9190   12.2230   30.9940 H   0  0  0  0  0  0  0  0  0  0  0  0
   19.7360   13.4500   31.5060 H   0  0  0  0  0  0  0  0  0  0  0  0
   21.7770   13.9870   29.5020 H   0  0  0  0  0  0  0  0  0  0  0  0
   20.2300   14.8580   29.5390 H   0  0  0  0  0  0  0  0  0  0  0  0
   21.6770   11.4230   28.6580 H   0  0  0  0  0  0  0  0  0  0  0  0
   21.8000   12.5100   27.2810 H   0  0  0  0  0  0  0  0  0  0  0  0
   17.4700   14.3780   25.9010 H   0  0  0  0  0  0  0  0  0  0  0  0
   16.3530   13.0650   24.1460 H   0  0  0  0  0  0  0  0  0  0  0  0
   17.6070    9.9630   22.8230 H   0  0  0  0  0  0  0  0  0  0  0  0
   16.3000   11.1260   22.7450 H   0  0  0  0  0  0  0  0  0  0  0  0
   16.4260    8.7440   24.6760 H   0  0  0  0  0  0  0  0  0  0  0  0
   15.4030    8.8920   23.2400 H   0  0  0  0  0  0  0  0  0  0  0  0
   15.1280    9.9470   24.6360 H   0  0  0  0  0  0  0  0  0  0  0  0
   18.8270    9.6970   25.0710 H   0  0  0  0  0  0  0  0  0  0  0  0
   19.9180   10.1400   27.6960 H   0  0  0  0  0  0  0  0  0  0  0  0
   20.8980    9.3430   25.7480 H   0  0  0  0  0  0  0  0  0  0  0  0
   22.0720    9.7140   26.8220 H   0  0  0  0  0  0  0  0  0  0  0  0
   22.8840   11.4350   25.5420 H   0  0  0  0  0  0  0  0  0  0  0  0
   21.3220   11.6100   24.6780 H   0  0  0  0  0  0  0  0  0  0  0  0
   23.1810    9.1840   24.4850 H   0  0  0  0  0  0  0  0  0  0  0  0
   20.7950    9.6610   23.0000 H   0  0  0  0  0  0  0  0  0  0  0  0
   22.3420   11.1520   22.3000 H   0  0  0  0  0  0  0  0  0  0  0  0
   22.7820    8.9130   21.4270 H   0  0  0  0  0  0  0  0  0  0  0  0
   24.2810    8.7970   22.3210 H   0  0  0  0  0  0  0  0  0  0  0  0
   26.2940    9.5870   21.4090 H   0  0  0  0  0  0  0  0  0  0  0  0
   22.5830   10.7600   19.5990 H   0  0  0  0  0  0  0  0  0  0  0  0
   23.8190   11.7520   17.7210 H   0  0  0  0  0  0  0  0  0  0  0  0
   26.2760   11.6590   17.6510 H   0  0  0  0  0  0  0  0  0  0  0  0
   28.1610    9.9010   18.5390 H   0  0  0  0  0  0  0  0  0  0  0  0
   28.2900    9.8000   20.2720 H   0  0  0  0  0  0  0  0  0  0  0  0
   28.4890   12.3850   18.6330 H   0  0  0  0  0  0  0  0  0  0  0  0
   29.8090   11.4440   19.2870 H   0  0  0  0  0  0  0  0  0  0  0  0
   29.7320   12.6750   21.1330 H   0  0  0  0  0  0  0  0  0  0  0  0
   28.2890   11.8080   21.5800 H   0  0  0  0  0  0  0  0  0  0  0  0
   27.2550   13.8010   19.8620 H   0  0  0  0  0  0  0  0  0  0  0  0
   28.6780   14.5910   20.5220 H   0  0  0  0  0  0  0  0  0  0  0  0
   25.6050   12.9720   21.1480 H   0  0  0  0  0  0  0  0  0  0  0  0
   25.1910   14.2920   25.1800 H   0  0  0  0  0  0  0  0  0  0  0  0
   25.0750   11.0640   23.5180 H   0  0  0  0  0  0  0  0  0  0  0  0
   28.2470   17.0840   27.6310 C   0  0  0  0  0  0  0  0  0  0  0  0
   28.5370   17.6180   28.5290 H   0  0  0  0  0  0  0  0  0  0  0  0
   27.5150   15.9140   27.7040 C   0  0  0  0  0  0  0  0  0  0  0  0
   27.2180   15.5040   28.6650 H   0  0  0  0  0  0  0  0  0  0  0  0
   27.1180   15.2020   26.6250 N   0  0  0  0  0  0  0  0  0  0  0  0
   27.4740   15.6660   25.3960 C   0  0  0  0  0  0  0  0  0  0  0  0
   28.2070   16.8410   25.2400 C   0  0  0  0  0  0  0  0  0  0  0  0
   28.4750   17.2210   24.2590 H   0  0  0  0  0  0  0  0  0  0  0  0
   28.5960   17.5540   26.3730 C   0  0  0  0  0  0  0  0  0  0  0  0
   29.1670   18.4720   26.2690 H   0  0  0  0  0  0  0  0  0  0  0  0
  1  2  1  0  0  0  0
  1  4  1  0  0  0  0
  1 42  1  0  0  0  0
  1 43  1  0  0  0  0
  2  3  1  0  0  0  0
  2 44  1  0  0  0  0
  2 45  1  0  0  0  0
  3  4  1  0  0  0  0
  3 46  1  0  0  0  0
  3 47  1  0  0  0  0
  4  5  1  0  0  0  0
  4  6  1  0  0  0  0
  5 15  1  0  0  0  0
  5 48  1  0  0  0  0
  5 49  1  0  0  0  0
  6  7  1  0  0  0  0
  7  8  1  0  0  0  0
  7 14  2  0  0  0  0
  8  9  2  0  0  0  0
  8 50  1  0  0  0  0
  9 10  1  0  0  0  0
  9 51  1  0  0  0  0
 10 11  1  0  0  0  0
 10 13  2  0  0  0  0
 11 12  1  0  0  0  0
 11 52  1  0  0  0  0
 11 53  1  0  0  0  0
 12 54  1  0  0  0  0
 12 55  1  0  0  0  0
 12 56  1  0  0  0  0
 13 14  1  0  0  0  0
 13 57  1  0  0  0  0
 14 15  1  0  0  0  0
 15 16  1  0  0  0  0
 15 58  1  0  0  0  0
 16 17  1  0  0  0  0
 16 59  1  0  0  0  0
 16 60  1  0  0  0  0
 17 18  1  0  0  0  0
 17 61  1  0  0  0  0
 17 62  1  0  0  0  0
 18 19  1  0  0  0  0
 18 20  1  0  0  0  0
 18 63  1  0  0  0  0
 19 64  1  0  0  0  0
 20 21  1  0  0  0  0
 20 41  1  0  0  0  0
 20 65  1  0  0  0  0
 21 22  1  0  0  0  0
 21 66  1  0  0  0  0
 21 67  1  0  0  0  0
 22 23  1  0  0  0  0
 22 24  2  0  0  0  0
 23 27  2  0  0  0  0
 23 68  1  0  0  0  0
 24 25  1  0  0  0  0
 24 69  1  0  0  0  0
 25 26  2  0  0  0  0
 25 70  1  0  0  0  0
 26 27  1  0  0  0  0
 26 71  1  0  0  0  0
 27 28  1  0  0  0  0
 28 29  1  0  0  0  0
 28 72  1  0  0  0  0
 28 73  1  0  0  0  0
 29 30  1  0  0  0  0
 29 74  1  0  0  0  0
 29 75  1  0  0  0  0
 30 31  1  0  0  0  0
 30 76  1  0  0  0  0
 30 77  1  0  0  0  0
 31 32  1  0  0  0  0
 31 78  1  0  0  0  0
 31 79  1  0  0  0  0
 32 33  1  0  0  0  0
 32 34  1  0  0  0  0
 33 38  2  0  0  0  0
 33 80  1  0  0  0  0
 34 35  2  0  0  0  0
 34 36  1  0  0  0  0
 36 37  2  0  0  0  0
 36 88  1  0  0  0  0
 37 38  1  0  0  0  0
 37 81  1  0  0  0  0
 38 39  1  0  0  0  0
 39 40  2  0  0  0  0
 39 41  1  0  0  0  0
 41 82  1  0  0  0  0
 83 84  1  0  0  0  0
 83 85  1  0  0  0  0
 83 91  2  0  0  0  0
 85 86  1  0  0  0  0
 85 87  2  0  0  0  0
 87 88  1  0  0  0  0
 88 89  2  0  0  0  0
 89 90  1  0  0  0  0
 89 91  1  0  0  0  0
 91 92  1  0  0  0  0
M  CHG  1  16   1
M  END
>  <PARENT_CMPD_ID>
23769639_20

>  <STANDARD_TYPE>
IC50

>  <RELATION>
=

>  <STANDARD_VALUE>
0.0059000002

>  <STANDARD_UNITS>
uM

>  <COMPOUND_KEY>
20

>  <PUBMED_ID>
23769639

>  <JOURNAL>
Bioorg.Med.Chem.Lett.

>  <YEAR>
2013

>  <VOLUME>
23

>  <FIRST_PAGE>
4459

>  <Company>
Amgen

>  <idx>
343

>  <Model>
Valid

>  <target>
8.2291479

>  <des_pred_mlr>
16.2864

>  <RF_Canvas>
7.8913746

>  <DNN_Canvas>
8.2884378

>  <pred_CoMFA>
8.1777

>  <pred_COMSIA>
8.3620005

>  <pred_abm5>
8.0250435

>  <pred_ff8>
7.4133892

>  <pred_gau6>
7.9992161

>  <CID>
BACE_343

>  <active>
1

>  <des_class_bayes>
0

>  <maacs_class_bayes>
1

>  <radial_class_bayes>
1

>  <dend_class_bayes>
1

>  <molprint_class_bayes>
1

>  <RF_canvas>
1

>  <DNN_canvas>
1

$$$$
CHEMBL541739
  MOE2015           3D

 93 96  0  0  1  0  0  0  0  0999 V2000
   20.2120   18.8540   25.9740 C   0  0  0  0  0  0  0  0  0  0  0  0
   21.4640   18.0110   25.8140 C   0  0  0  0  0  0  0  0  0  0  0  0
   22.4540   18.6440   24.8420 C   0  0  0  0  0  0  0  0  0  0  0  0
   23.5850   17.7910   24.6830 O   0  0  0  0  0  0  0  0  0  0  0  0
   24.5160   18.0680   25.6920 N   0  0  0  0  0  0  0  0  0  0  0  0
   25.5220   17.2450   25.6700 C   0  0  0  0  0  0  0  0  0  0  0  0
   26.6390   17.5040   26.6440 C   0  0  0  0  0  0  0  0  0  0  0  0
   25.6790   16.0740   24.7800 C   0  0  0  0  0  0  0  0  0  0  0  0
   26.8530   15.9160   24.0490 C   0  0  0  0  0  0  0  0  0  0  0  0
   26.9710   14.8730   23.1300 C   0  0  0  0  0  0  0  0  0  0  0  0
   25.9310   13.9560   22.9960 C   0  0  0  0  0  0  0  0  0  0  0  0
   24.7680   14.1110   23.7490 C   0  0  0  0  0  0  0  0  0  0  0  0
   24.6370   15.1670   24.6390 C   0  0  0  0  0  0  0  0  0  0  0  0
   23.6030   13.2380   23.5150 C   0  0  0  0  0  0  0  0  0  0  0  0
   22.4630   13.6820   23.4760 O   0  0  0  0  0  0  0  0  0  0  0  0
   23.8870   11.9050   23.3410 N   0  0  0  0  0  0  0  0  0  0  0  0
   22.8460   10.9530   22.9590 C   0  0  3  0  0  0  0  0  0  0  0  0
   23.3760   10.0120   21.8650 C   0  0  0  0  0  0  0  0  0  0  0  0
   23.9080   10.7740   20.6770 C   0  0  0  0  0  0  0  0  0  0  0  0
   25.2230   10.5890   20.2550 C   0  0  0  0  0  0  0  0  0  0  0  0
   25.7270   11.3400   19.2050 C   0  0  0  0  0  0  0  0  0  0  0  0
   26.9860   11.1440   18.8140 F   0  0  0  0  0  0  0  0  0  0  0  0
   24.9570   12.2840   18.5600 C   0  0  0  0  0  0  0  0  0  0  0  0
   23.6510   12.4550   18.9650 C   0  0  0  0  0  0  0  0  0  0  0  0
   22.8860   13.3590   18.3530 F   0  0  0  0  0  0  0  0  0  0  0  0
   23.1170   11.7060   20.0010 C   0  0  0  0  0  0  0  0  0  0  0  0
   22.3370   10.2170   24.2060 C   0  0  1  0  0  0  0  0  0  0  0  0
   23.4400    9.7220   24.9640 O   0  0  0  0  0  0  0  0  0  0  0  0
   21.4870   11.1280   25.0890 C   0  0  0  0  0  0  0  0  0  0  0  0
   20.8620   10.2960   26.1700 N   0  3  0  0  0  0  0  0  0  0  0  0
   19.9310   11.0490   27.0660 C   0  0  0  0  0  0  0  0  0  0  0  0
   18.7350   11.5930   26.3350 C   0  0  0  0  0  0  0  0  0  0  0  0
   18.4550   12.9570   26.3340 C   0  0  0  0  0  0  0  0  0  0  0  0
   17.3800   13.4540   25.6050 C   0  0  0  0  0  0  0  0  0  0  0  0
   16.5780   12.5970   24.8590 C   0  0  0  0  0  0  0  0  0  0  0  0
   16.8380   11.2320   24.8520 C   0  0  0  0  0  0  0  0  0  0  0  0
   16.1520   10.2770   24.1600 O   0  0  0  0  0  0  0  0  0  0  0  0
   15.0880   10.7240   23.3370 C   0  0  0  0  0  0  0  0  0  0  0  0
   17.9010   10.7400   25.6060 C   0  0  0  0  0  0  0  0  0  0  0  0
   28.0250   14.9530   22.1280 N   0  0  0  0  0  0  0  0  0  0  0  0
   28.7610   13.7320   21.9160 C   0  0  0  0  0  0  0  0  0  0  0  0
   28.7880   13.0220   20.7230 C   0  0  0  0  0  0  0  0  0  0  0  0
   29.4400   11.7920   20.6340 C   0  0  0  0  0  0  0  0  0  0  0  0
   30.0520   11.2430   21.7410 C   0  0  0  0  0  0  0  0  0  0  0  0
   30.0520   11.9460   22.9320 C   0  0  0  0  0  0  0  0  0  0  0  0
   29.4200   13.1870   23.0150 C   0  0  0  0  0  0  0  0  0  0  0  0
   27.5690   15.9320   20.7820 S   0  0  0  0  0  0  0  0  0  0  0  0
   26.8260   15.1450   19.8180 O   0  0  0  0  0  0  0  0  0  0  0  0
   27.0070   17.1740   21.2800 O   0  0  0  0  0  0  0  0  0  0  0  0
   29.1490   16.3460   20.0970 C   0  0  0  0  0  0  0  0  0  0  0  0
   19.5200   18.3770   26.6750 H   0  0  0  0  0  0  0  0  0  0  0  0
   19.6960   18.9760   25.0170 H   0  0  0  0  0  0  0  0  0  0  0  0
   20.4570   19.8480   26.3620 H   0  0  0  0  0  0  0  0  0  0  0  0
   21.1950   17.0080   25.4610 H   0  0  0  0  0  0  0  0  0  0  0  0
   21.9400   17.8680   26.7910 H   0  0  0  0  0  0  0  0  0  0  0  0
   22.7650   19.6430   25.1730 H   0  0  0  0  0  0  0  0  0  0  0  0
   21.9910   18.7550   23.8560 H   0  0  0  0  0  0  0  0  0  0  0  0
   27.2740   16.6240   26.7780 H   0  0  0  0  0  0  0  0  0  0  0  0
   26.2200   17.7740   27.6190 H   0  0  0  0  0  0  0  0  0  0  0  0
   27.2480   18.3360   26.2800 H   0  0  0  0  0  0  0  0  0  0  0  0
   27.6390   16.6670   24.1030 H   0  0  0  0  0  0  0  0  0  0  0  0
   25.9800   13.2020   22.2140 H   0  0  0  0  0  0  0  0  0  0  0  0
   23.7120   15.3020   25.1950 H   0  0  0  0  0  0  0  0  0  0  0  0
   24.8430   11.5770   23.4300 H   0  0  0  0  0  0  0  0  0  0  0  0
   21.9980   11.5070   22.5380 H   0  0  0  0  0  0  0  0  0  0  0  0
   24.1660    9.3730   22.2800 H   0  0  0  0  0  0  0  0  0  0  0  0
   22.5780    9.3410   21.5240 H   0  0  0  0  0  0  0  0  0  0  0  0
   25.8750    9.8660   20.7380 H   0  0  0  0  0  0  0  0  0  0  0  0
   25.3690   12.8780   17.7520 H   0  0  0  0  0  0  0  0  0  0  0  0
   22.0810   11.8810   20.2800 H   0  0  0  0  0  0  0  0  0  0  0  0
   21.7370    9.3540   23.8940 H   0  0  0  0  0  0  0  0  0  0  0  0
   24.0870   10.4450   25.0610 H   0  0  0  0  0  0  0  0  0  0  0  0
   20.6830   11.5910   24.5120 H   0  0  0  0  0  0  0  0  0  0  0  0
   22.0850   11.8880   25.6020 H   0  0  0  0  0  0  0  0  0  0  0  0
   20.3660    9.4980   25.7560 H   0  0  0  0  0  0  0  0  0  0  0  0
   21.6300    9.8830   26.7200 H   0  0  0  0  0  0  0  0  0  0  0  0
   19.6090   10.3470   27.8430 H   0  0  0  0  0  0  0  0  0  0  0  0
   20.5200   11.8400   27.5430 H   0  0  0  0  0  0  0  0  0  0  0  0
   19.0740   13.6570   26.8920 H   0  0  0  0  0  0  0  0  0  0  0  0
   17.1700   14.5210   25.6090 H   0  0  0  0  0  0  0  0  0  0  0  0
   15.7560   13.0270   24.2950 H   0  0  0  0  0  0  0  0  0  0  0  0
   14.6570    9.8500   22.8400 H   0  0  0  0  0  0  0  0  0  0  0  0
   15.4480   11.4040   22.5580 H   0  0  0  0  0  0  0  0  0  0  0  0
   14.2970   11.1910   23.9330 H   0  0  0  0  0  0  0  0  0  0  0  0
   18.0700    9.6650   25.6030 H   0  0  0  0  0  0  0  0  0  0  0  0
   28.2860   13.3640   19.8250 H   0  0  0  0  0  0  0  0  0  0  0  0
   29.4400   11.2510   19.6900 H   0  0  0  0  0  0  0  0  0  0  0  0
   30.5450   10.2770   21.6740 H   0  0  0  0  0  0  0  0  0  0  0  0
   30.5500   11.5360   23.8070 H   0  0  0  0  0  0  0  0  0  0  0  0
   29.4380   13.7160   23.9650 H   0  0  0  0  0  0  0  0  0  0  0  0
   29.6320   15.4620   19.6820 H   0  0  0  0  0  0  0  0  0  0  0  0
   29.7650   16.8000   20.8750 H   0  0  0  0  0  0  0  0  0  0  0  0
   28.9840   17.0710   19.2960 H   0  0  0  0  0  0  0  0  0  0  0  0
  1  2  1  0  0  0  0
  1 51  1  0  0  0  0
  1 52  1  0  0  0  0
  1 53  1  0  0  0  0
  2  3  1  0  0  0  0
  2 54  1  0  0  0  0
  2 55  1  0  0  0  0
  3  4  1  0  0  0  0
  3 56  1  0  0  0  0
  3 57  1  0  0  0  0
  4  5  1  0  0  0  0
  5  6  2  0  0  0  0
  6  7  1  0  0  0  0
  6  8  1  0  0  0  0
  7 58  1  0  0  0  0
  7 59  1  0  0  0  0
  7 60  1  0  0  0  0
  8  9  1  0  0  0  0
  8 13  2  0  0  0  0
  9 10  2  0  0  0  0
  9 61  1  0  0  0  0
 10 11  1  0  0  0  0
 10 40  1  0  0  0  0
 11 12  2  0  0  0  0
 11 62  1  0  0  0  0
 12 13  1  0  0  0  0
 12 14  1  0  0  0  0
 13 63  1  0  0  0  0
 14 15  2  0  0  0  0
 14 16  1  0  0  0  0
 16 17  1  0  0  0  0
 16 64  1  0  0  0  0
 17 18  1  0  0  0  0
 17 27  1  0  0  0  0
 17 65  1  0  0  0  0
 18 19  1  0  0  0  0
 18 66  1  0  0  0  0
 18 67  1  0  0  0  0
 19 20  2  0  0  0  0
 19 26  1  0  0  0  0
 20 21  1  0  0  0  0
 20 68  1  0  0  0  0
 21 22  1  0  0  0  0
 21 23  2  0  0  0  0
 23 24  1  0  0  0  0
 23 69  1  0  0  0  0
 24 25  1  0  0  0  0
 24 26  2  0  0  0  0
 26 70  1  0  0  0  0
 27 28  1  0  0  0  0
 27 29  1  0  0  0  0
 27 71  1  0  0  0  0
 28 72  1  0  0  0  0
 29 30  1  0  0  0  0
 29 73  1  0  0  0  0
 29 74  1  0  0  0  0
 30 31  1  0  0  0  0
 30 75  1  0  0  0  0
 30 76  1  0  0  0  0
 31 32  1  0  0  0  0
 31 77  1  0  0  0  0
 31 78  1  0  0  0  0
 32 33  1  0  0  0  0
 32 39  2  0  0  0  0
 33 34  2  0  0  0  0
 33 79  1  0  0  0  0
 34 35  1  0  0  0  0
 34 80  1  0  0  0  0
 35 36  2  0  0  0  0
 35 81  1  0  0  0  0
 36 37  1  0  0  0  0
 36 39  1  0  0  0  0
 37 38  1  0  0  0  0
 38 82  1  0  0  0  0
 38 83  1  0  0  0  0
 38 84  1  0  0  0  0
 39 85  1  0  0  0  0
 40 41  1  0  0  0  0
 40 47  1  0  0  0  0
 41 42  1  0  0  0  0
 41 46  2  0  0  0  0
 42 43  2  0  0  0  0
 42 86  1  0  0  0  0
 43 44  1  0  0  0  0
 43 87  1  0  0  0  0
 44 45  2  0  0  0  0
 44 88  1  0  0  0  0
 45 46  1  0  0  0  0
 45 89  1  0  0  0  0
 46 90  1  0  0  0  0
 47 48  2  0  0  0  0
 47 49  2  0  0  0  0
 47 50  1  0  0  0  0
 50 91  1  0  0  0  0
 50 92  1  0  0  0  0
 50 93  1  0  0  0  0
M  CHG  1  30   1
M  END
>  <PARENT_CMPD_ID>
CHEMBL541739

>  <STANDARD_TYPE>
IC50

>  <RELATION>
=

>  <STANDARD_VALUE>
6

>  <STANDARD_UNITS>
nM

>  <COMPOUND_KEY>
6f

>  <PUBMED_ID>
19375914

>  <JOURNAL>
Bioorg. Med. Chem. Lett.

>  <YEAR>
2009

>  <VOLUME>
19

>  <FIRST_PAGE>
2654

>  <Company>
BMS

>  <idx>
344

>  <Model>
Valid

>  <target>
8.2218485

>  <des_pred_mlr>
8.1719704

>  <RF_Canvas>
7.7297616

>  <DNN_Canvas>
8.0465279

>  <pred_CoMFA>
7.4123001

>  <pred_COMSIA>
8.6969004

>  <pred_abm5>
7.0694218

>  <pred_ff8>
6.3962016

>  <pred_gau6>
7.7380328

>  <CID>
BACE_344

>  <active>
1

>  <des_class_bayes>
1

>  <maacs_class_bayes>
0

>  <radial_class_bayes>
1

>  <dend_class_bayes>
1

>  <molprint_class_bayes>
1

>  <RF_canvas>
1

>  <DNN_canvas>
1

$$$$
CHEMBL510798
  MOE2015           3D

 87 90  0  0  1  0  0  0  0  0999 V2000
   30.3000   10.9690   21.6420 C   0  0  0  0  0  0  0  0  0  0  0  0
   30.0380   12.2370   20.8530 C   0  0  0  0  0  0  0  0  0  0  0  0
   28.6260   12.5120   20.8900 N   0  0  0  0  0  0  0  0  0  0  0  0
   27.9870   13.1550   21.9230 C   0  0  0  0  0  0  0  0  0  0  0  0
   28.5370   14.1680   22.6760 C   0  0  0  0  0  0  0  0  0  0  0  0
   27.7890   14.8100   23.6750 C   0  0  0  0  0  0  0  0  0  0  0  0
   26.4920   14.3630   24.0030 C   0  0  0  0  0  0  0  0  0  0  0  0
   25.9510   13.3010   23.2970 C   0  0  0  0  0  0  0  0  0  0  0  0
   26.7070   12.7390   22.2660 C   0  0  0  0  0  0  0  0  0  0  0  0
   24.5640   12.7530   23.4850 C   0  0  0  0  0  0  0  0  0  0  0  0
   23.5620   13.4450   23.6220 O   0  0  0  0  0  0  0  0  0  0  0  0
   24.4840   11.3770   23.3070 N   0  0  0  0  0  0  0  0  0  0  0  0
   23.2460   10.6510   23.0330 C   0  0  1  0  0  0  0  0  0  0  0  0
   23.4090    9.7790   21.7600 C   0  0  0  0  0  0  0  0  0  0  0  0
   24.2150   10.4070   20.6540 C   0  0  0  0  0  0  0  0  0  0  0  0
   23.8260   11.6130   20.0750 C   0  0  0  0  0  0  0  0  0  0  0  0
   24.6100   12.2070   19.0920 C   0  0  0  0  0  0  0  0  0  0  0  0
   25.7770   11.5930   18.6620 C   0  0  0  0  0  0  0  0  0  0  0  0
   26.1650   10.3840   19.2180 C   0  0  0  0  0  0  0  0  0  0  0  0
   25.3890    9.7940   20.2080 C   0  0  0  0  0  0  0  0  0  0  0  0
   22.7820    9.7960   24.2360 C   0  0  3  0  0  0  0  0  0  0  0  0
   21.5670    9.0860   23.8930 O   0  0  0  0  0  0  0  0  0  0  0  0
   22.5360   10.5320   25.5520 C   0  0  0  0  0  0  0  0  0  0  0  0
   21.0810   10.7510   25.6100 N   0  3  0  0  0  0  0  0  0  0  0  0
   20.3590   11.2680   26.8140 C   0  0  0  0  0  0  0  0  0  0  0  0
   21.2140   12.3560   27.4780 C   0  0  0  0  0  0  0  0  0  0  0  0
   20.1790   10.1150   27.8050 C   0  0  0  0  0  0  0  0  0  0  0  0
   19.0220   11.7720   26.2790 C   0  0  0  0  0  0  0  0  0  0  0  0
   18.6920   13.1270   26.2260 C   0  0  0  0  0  0  0  0  0  0  0  0
   17.5700   13.5600   25.5320 C   0  0  0  0  0  0  0  0  0  0  0  0
   16.7520   12.6490   24.8840 C   0  0  0  0  0  0  0  0  0  0  0  0
   17.0330   11.2880   24.9450 C   0  0  0  0  0  0  0  0  0  0  0  0
   18.1600   10.8630   25.6490 C   0  0  0  0  0  0  0  0  0  0  0  0
   16.1620   10.2610   24.2720 C   0  0  0  0  0  0  0  0  0  0  0  0
   16.8730    9.4680   23.4250 F   0  0  0  0  0  0  0  0  0  0  0  0
   15.1510   10.7910   23.5340 F   0  0  0  0  0  0  0  0  0  0  0  0
   15.5750    9.4120   25.1580 F   0  0  0  0  0  0  0  0  0  0  0  0
   28.4150   15.9530   24.2680 N   0  0  0  0  0  0  0  0  0  0  0  0
   29.8370   15.8470   24.7050 C   0  0  0  0  0  0  0  0  0  0  0  0
   29.9850   16.2210   26.1770 C   0  0  0  0  0  0  0  0  0  0  0  0
   28.7390   15.8520   26.9830 C   0  0  0  0  0  0  0  0  0  0  0  0
   27.4970   16.6640   26.6100 C   0  0  0  0  0  0  0  0  0  0  0  0
   27.5230   17.2290   24.9320 S   0  0  0  0  0  0  0  0  0  0  0  0
   28.3550   18.4170   24.9100 O   0  0  0  0  0  0  0  0  0  0  0  0
   26.1620   17.2760   24.4410 O   0  0  0  0  0  0  0  0  0  0  0  0
   31.3590   10.6980   21.5830 H   0  0  0  0  0  0  0  0  0  0  0  0
   29.7120   10.1310   21.2520 H   0  0  0  0  0  0  0  0  0  0  0  0
   30.0430   11.0950   22.6990 H   0  0  0  0  0  0  0  0  0  0  0  0
   30.3370   12.0740   19.8120 H   0  0  0  0  0  0  0  0  0  0  0  0
   30.6470   13.0660   21.2270 H   0  0  0  0  0  0  0  0  0  0  0  0
   28.0580   12.1640   20.1260 H   0  0  0  0  0  0  0  0  0  0  0  0
   29.5160   14.5510   22.4070 H   0  0  0  0  0  0  0  0  0  0  0  0
   25.8940   14.8380   24.7710 H   0  0  0  0  0  0  0  0  0  0  0  0
   26.2810   11.9460   21.6650 H   0  0  0  0  0  0  0  0  0  0  0  0
   25.3470   10.8410   23.3310 H   0  0  0  0  0  0  0  0  0  0  0  0
   22.4620   11.3890   22.8180 H   0  0  0  0  0  0  0  0  0  0  0  0
   23.8850    8.8310   22.0430 H   0  0  0  0  0  0  0  0  0  0  0  0
   22.4220    9.5100   21.3630 H   0  0  0  0  0  0  0  0  0  0  0  0
   22.9130   12.1120   20.3940 H   0  0  0  0  0  0  0  0  0  0  0  0
   24.3010   13.1520   18.6510 H   0  0  0  0  0  0  0  0  0  0  0  0
   26.3730   12.0490   17.8740 H   0  0  0  0  0  0  0  0  0  0  0  0
   27.0700    9.8900   18.8720 H   0  0  0  0  0  0  0  0  0  0  0  0
   25.7130    8.8450   20.6300 H   0  0  0  0  0  0  0  0  0  0  0  0
   23.5540    9.0400   24.4310 H   0  0  0  0  0  0  0  0  0  0  0  0
   21.8050    8.3460   23.3000 H   0  0  0  0  0  0  0  0  0  0  0  0
   23.0620   11.4850   25.6400 H   0  0  0  0  0  0  0  0  0  0  0  0
   22.7890    9.8870   26.3980 H   0  0  0  0  0  0  0  0  0  0  0  0
   20.6780    9.8670   25.2350 H   0  0  0  0  0  0  0  0  0  0  0  0
   20.8720   11.4070   24.8430 H   0  0  0  0  0  0  0  0  0  0  0  0
   20.6830   12.8200   28.3180 H   0  0  0  0  0  0  0  0  0  0  0  0
   21.4900   13.1510   26.7740 H   0  0  0  0  0  0  0  0  0  0  0  0
   22.1460   11.9480   27.8860 H   0  0  0  0  0  0  0  0  0  0  0  0
   19.5510   10.4210   28.6500 H   0  0  0  0  0  0  0  0  0  0  0  0
   21.1400    9.7840   28.2150 H   0  0  0  0  0  0  0  0  0  0  0  0
   19.7100    9.2330   27.3540 H   0  0  0  0  0  0  0  0  0  0  0  0
   19.3090   13.8920   26.6910 H   0  0  0  0  0  0  0  0  0  0  0  0
   17.3380   14.6230   25.4870 H   0  0  0  0  0  0  0  0  0  0  0  0
   15.8810   13.0090   24.3390 H   0  0  0  0  0  0  0  0  0  0  0  0
   18.3700    9.7940   25.6620 H   0  0  0  0  0  0  0  0  0  0  0  0
   30.2000   14.8180   24.5980 H   0  0  0  0  0  0  0  0  0  0  0  0
   30.4660   16.4830   24.0740 H   0  0  0  0  0  0  0  0  0  0  0  0
   30.8600   15.7050   26.5900 H   0  0  0  0  0  0  0  0  0  0  0  0
   30.1930   17.2910   26.2850 H   0  0  0  0  0  0  0  0  0  0  0  0
   28.9370   15.9810   28.0530 H   0  0  0  0  0  0  0  0  0  0  0  0
   28.5270   14.7840   26.8440 H   0  0  0  0  0  0  0  0  0  0  0  0
   27.4250   17.5580   27.2380 H   0  0  0  0  0  0  0  0  0  0  0  0
   26.5930   16.0680   26.7700 H   0  0  0  0  0  0  0  0  0  0  0  0
  1  2  1  0  0  0  0
  1 46  1  0  0  0  0
  1 47  1  0  0  0  0
  1 48  1  0  0  0  0
  2  3  1  0  0  0  0
  2 49  1  0  0  0  0
  2 50  1  0  0  0  0
  3  4  1  0  0  0  0
  3 51  1  0  0  0  0
  4  5  2  0  0  0  0
  4  9  1  0  0  0  0
  5  6  1  0  0  0  0
  5 52  1  0  0  0  0
  6  7  2  0  0  0  0
  6 38  1  0  0  0  0
  7  8  1  0  0  0  0
  7 53  1  0  0  0  0
  8  9  2  0  0  0  0
  8 10  1  0  0  0  0
  9 54  1  0  0  0  0
 10 11  2  0  0  0  0
 10 12  1  0  0  0  0
 12 13  1  0  0  0  0
 12 55  1  0  0  0  0
 13 14  1  0  0  0  0
 13 21  1  0  0  0  0
 13 56  1  0  0  0  0
 14 15  1  0  0  0  0
 14 57  1  0  0  0  0
 14 58  1  0  0  0  0
 15 16  1  0  0  0  0
 15 20  2  0  0  0  0
 16 17  2  0  0  0  0
 16 59  1  0  0  0  0
 17 18  1  0  0  0  0
 17 60  1  0  0  0  0
 18 19  2  0  0  0  0
 18 61  1  0  0  0  0
 19 20  1  0  0  0  0
 19 62  1  0  0  0  0
 20 63  1  0  0  0  0
 21 22  1  0  0  0  0
 21 23  1  0  0  0  0
 21 64  1  0  0  0  0
 22 65  1  0  0  0  0
 23 24  1  0  0  0  0
 23 66  1  0  0  0  0
 23 67  1  0  0  0  0
 24 25  1  0  0  0  0
 24 68  1  0  0  0  0
 24 69  1  0  0  0  0
 25 26  1  0  0  0  0
 25 27  1  0  0  0  0
 25 28  1  0  0  0  0
 26 70  1  0  0  0  0
 26 71  1  0  0  0  0
 26 72  1  0  0  0  0
 27 73  1  0  0  0  0
 27 74  1  0  0  0  0
 27 75  1  0  0  0  0
 28 29  1  0  0  0  0
 28 33  2  0  0  0  0
 29 30  2  0  0  0  0
 29 76  1  0  0  0  0
 30 31  1  0  0  0  0
 30 77  1  0  0  0  0
 31 32  2  0  0  0  0
 31 78  1  0  0  0  0
 32 33  1  0  0  0  0
 32 34  1  0  0  0  0
 33 79  1  0  0  0  0
 34 35  1  0  0  0  0
 34 36  1  0  0  0  0
 34 37  1  0  0  0  0
 38 39  1  0  0  0  0
 38 43  1  0  0  0  0
 39 40  1  0  0  0  0
 39 80  1  0  0  0  0
 39 81  1  0  0  0  0
 40 41  1  0  0  0  0
 40 82  1  0  0  0  0
 40 83  1  0  0  0  0
 41 42  1  0  0  0  0
 41 84  1  0  0  0  0
 41 85  1  0  0  0  0
 42 43  1  0  0  0  0
 42 86  1  0  0  0  0
 42 87  1  0  0  0  0
 43 44  2  0  0  0  0
 43 45  2  0  0  0  0
M  CHG  1  24   1
M  END
>  <PARENT_CMPD_ID>
CHEMBL510798

>  <STANDARD_TYPE>
IC50

>  <RELATION>
=

>  <STANDARD_VALUE>
6

>  <STANDARD_UNITS>
nM

>  <COMPOUND_KEY>
25

>  <PUBMED_ID>
19428244

>  <JOURNAL>
Bioorg. Med. Chem. Lett.

>  <YEAR>
2009

>  <VOLUME>
19

>  <FIRST_PAGE>
3664

>  <Company>
GSK

>  <idx>
345

>  <Model>
Valid

>  <target>
8.2218485

>  <des_pred_mlr>
7.4874601

>  <RF_Canvas>
8.1195965

>  <DNN_Canvas>
8.108532

>  <pred_CoMFA>
7.5105

>  <pred_COMSIA>
8.0562

>  <pred_abm5>
6.8534322

>  <pred_ff8>
6.1564517

>  <pred_gau6>
6.5277963

>  <CID>
BACE_345

>  <active>
1

>  <des_class_bayes>
1

>  <maacs_class_bayes>
1

>  <radial_class_bayes>
1

>  <dend_class_bayes>
1

>  <molprint_class_bayes>
1

>  <RF_canvas>
1

>  <DNN_canvas>
1

$$$$
CHEMBL1210363
  MOE2015           3D

 87 91  0  0  1  0  0  0  0  0999 V2000
   28.1260   13.5140   22.8260 C   0  0  0  0  0  0  0  0  0  0  0  0
   28.2960   14.5110   23.7770 C   0  0  0  0  0  0  0  0  0  0  0  0
   27.2450   14.9490   24.5510 C   0  0  0  0  0  0  0  0  0  0  0  0
   25.9890   14.4010   24.4060 C   0  0  0  0  0  0  0  0  0  0  0  0
   25.8120   13.4090   23.4600 C   0  0  0  0  0  0  0  0  0  0  0  0
   26.8590   12.9700   22.6640 C   0  0  0  0  0  0  0  0  0  0  0  0
   24.4670   12.8370   23.2970 C   0  0  0  0  0  0  0  0  0  0  0  0
   23.4860   13.5710   23.2770 O   0  0  0  0  0  0  0  0  0  0  0  0
   24.4130   11.4770   23.1530 N   0  0  0  0  0  0  0  0  0  0  0  0
   23.1870   10.8210   22.7430 C   0  0  3  0  0  0  0  0  0  0  0  0
   23.5020    9.8670   21.5980 C   0  0  0  0  0  0  0  0  0  0  0  0
   24.3520   10.4960   20.5300 C   0  0  0  0  0  0  0  0  0  0  0  0
   23.9740   11.6980   19.9550 C   0  0  0  0  0  0  0  0  0  0  0  0
   24.7830   12.2580   18.9800 C   0  0  0  0  0  0  0  0  0  0  0  0
   25.9490   11.6360   18.5770 C   0  0  0  0  0  0  0  0  0  0  0  0
   26.3280   10.4440   19.1500 C   0  0  0  0  0  0  0  0  0  0  0  0
   25.5260    9.8760   20.1250 C   0  0  0  0  0  0  0  0  0  0  0  0
   22.5430   10.1470   23.9570 C   0  0  3  0  0  0  0  0  0  0  0  0
   21.4100    9.3600   23.5880 O   0  0  0  0  0  0  0  0  0  0  0  0
   21.9980   11.1450   24.9750 C   0  0  0  0  0  0  0  0  0  0  0  0
   21.3680   10.3940   26.0670 N   0  3  0  0  0  0  0  0  0  0  0  0
   20.3480   11.1510   26.8210 C   0  0  0  0  0  0  0  0  0  0  0  0
   27.4120   15.9900   25.5160 N   0  0  0  0  0  0  0  0  0  0  0  0
   26.5810   17.1510   25.3650 C   0  0  0  0  0  0  0  0  0  0  0  0
   25.5980   17.3940   26.2960 C   0  0  0  0  0  0  0  0  0  0  0  0
   24.7960   18.5090   26.1610 C   0  0  0  0  0  0  0  0  0  0  0  0
   24.9840   19.3540   25.0900 C   0  0  0  0  0  0  0  0  0  0  0  0
   25.9650   19.0960   24.1530 C   0  0  0  0  0  0  0  0  0  0  0  0
   26.7820   17.9820   24.2880 C   0  0  0  0  0  0  0  0  0  0  0  0
   28.7460   16.1330   26.5400 S   0  0  0  0  0  0  0  0  0  0  0  0
   29.8550   17.1970   25.6590 C   0  0  0  0  0  0  0  0  0  0  0  0
   29.3320   14.8140   26.6470 O   0  0  0  0  0  0  0  0  0  0  0  0
   28.3110   16.8350   27.7370 O   0  0  0  0  0  0  0  0  0  0  0  0
   29.2730   14.9520   23.9120 H   0  0  0  0  0  0  0  0  0  0  0  0
   25.1640   14.7380   25.0160 H   0  0  0  0  0  0  0  0  0  0  0  0
   26.6890   12.2060   21.9190 H   0  0  0  0  0  0  0  0  0  0  0  0
   25.2380   10.9230   23.3350 H   0  0  0  0  0  0  0  0  0  0  0  0
   22.4540   11.5340   22.3660 H   0  0  0  0  0  0  0  0  0  0  0  0
   22.5640    9.5410   21.1490 H   0  0  0  0  0  0  0  0  0  0  0  0
   24.0320    9.0030   22.0000 H   0  0  0  0  0  0  0  0  0  0  0  0
   23.0630   12.1910   20.2620 H   0  0  0  0  0  0  0  0  0  0  0  0
   24.4980   13.1960   18.5270 H   0  0  0  0  0  0  0  0  0  0  0  0
   26.5640   12.0860   17.8110 H   0  0  0  0  0  0  0  0  0  0  0  0
   27.2410    9.9570   18.8420 H   0  0  0  0  0  0  0  0  0  0  0  0
   25.8170    8.9390   20.5760 H   0  0  0  0  0  0  0  0  0  0  0  0
   23.3480    9.5480   24.3810 H   0  0  0  0  0  0  0  0  0  0  0  0
   20.7490    9.9550   23.2250 H   0  0  0  0  0  0  0  0  0  0  0  0
   21.2600   11.7910   24.4990 H   0  0  0  0  0  0  0  0  0  0  0  0
   22.8130   11.7520   25.3680 H   0  0  0  0  0  0  0  0  0  0  0  0
   22.0910   10.1090   26.7120 H   0  0  0  0  0  0  0  0  0  0  0  0
   20.9270    9.5750   25.6730 H   0  0  0  0  0  0  0  0  0  0  0  0
   19.8630   10.4660   27.5170 H   0  0  0  0  0  0  0  0  0  0  0  0
   20.8350   11.9810   27.3340 H   0  0  0  0  0  0  0  0  0  0  0  0
   25.4550   16.7180   27.1260 H   0  0  0  0  0  0  0  0  0  0  0  0
   24.0270   18.7170   26.8900 H   0  0  0  0  0  0  0  0  0  0  0  0
   24.3580   20.2270   24.9820 H   0  0  0  0  0  0  0  0  0  0  0  0
   26.0970   19.7620   23.3130 H   0  0  0  0  0  0  0  0  0  0  0  0
   27.5570   17.7730   23.5650 H   0  0  0  0  0  0  0  0  0  0  0  0
   30.1980   16.6950   24.7540 H   0  0  0  0  0  0  0  0  0  0  0  0
   30.7110   17.4330   26.2910 H   0  0  0  0  0  0  0  0  0  0  0  0
   29.3380   18.1180   25.3900 H   0  0  0  0  0  0  0  0  0  0  0  0
   17.4480   12.7400   24.3140 C   0  0  0  0  0  0  0  0  0  0  0  0
   16.6880   13.1560   23.6580 H   0  0  0  0  0  0  0  0  0  0  0  0
   17.5030   11.3630   24.5310 C   0  0  0  0  0  0  0  0  0  0  0  0
   16.7870   10.7070   24.0440 H   0  0  0  0  0  0  0  0  0  0  0  0
   18.4780   10.8290   25.3740 C   0  0  0  0  0  0  0  0  0  0  0  0
   18.5210    9.7570   25.5430 H   0  0  0  0  0  0  0  0  0  0  0  0
   19.3980   11.6720   26.0000 C   0  0  0  0  0  0  0  0  0  0  0  0
   19.3420   13.0490   25.7820 C   0  0  0  0  0  0  0  0  0  0  0  0
   20.0580   13.7050   26.2690 H   0  0  0  0  0  0  0  0  0  0  0  0
   18.3670   13.5830   24.9390 C   0  0  0  0  0  0  0  0  0  0  0  0
   18.3080   15.0500   24.7070 C   0  0  0  0  0  0  0  0  0  0  0  0
   17.2840   15.3330   23.8580 F   0  0  0  0  0  0  0  0  0  0  0  0
   19.4800   15.4700   24.1610 F   0  0  0  0  0  0  0  0  0  0  0  0
   18.1040   15.6880   25.8910 F   0  0  0  0  0  0  0  0  0  0  0  0
   29.3270   11.8380   21.3780 C   0  0  0  0  0  0  0  0  0  0  0  0
   30.6810   11.7890   20.7090 C   0  0  0  0  0  0  0  0  0  0  0  0
   31.1120   13.2440   20.6880 C   0  0  0  0  0  0  0  0  0  0  0  0
   30.7040   13.7340   19.7950 H   0  0  0  0  0  0  0  0  0  0  0  0
   32.1980   13.3700   20.6770 H   0  0  0  0  0  0  0  0  0  0  0  0
   30.6060   11.3710   19.7030 H   0  0  0  0  0  0  0  0  0  0  0  0
   31.3540   11.1800   21.3210 H   0  0  0  0  0  0  0  0  0  0  0  0
   28.5370   10.9060   21.3550 O   0  0  0  0  0  0  0  0  0  0  0  0
   29.2370   13.0610   22.0620 N   0  0  0  0  0  0  0  0  0  0  0  0
   30.4640   13.8170   21.9320 C   0  0  0  0  0  0  0  0  0  0  0  0
   31.0810   13.6400   22.8190 H   0  0  0  0  0  0  0  0  0  0  0  0
   30.2700   14.8870   21.8120 H   0  0  0  0  0  0  0  0  0  0  0  0
  1  2  1  0  0  0  0
  1  6  2  0  0  0  0
  1 84  1  0  0  0  0
  2  3  2  0  0  0  0
  2 34  1  0  0  0  0
  3  4  1  0  0  0  0
  3 23  1  0  0  0  0
  4  5  2  0  0  0  0
  4 35  1  0  0  0  0
  5  6  1  0  0  0  0
  5  7  1  0  0  0  0
  6 36  1  0  0  0  0
  7  8  2  0  0  0  0
  7  9  1  0  0  0  0
  9 10  1  0  0  0  0
  9 37  1  0  0  0  0
 10 11  1  0  0  0  0
 10 18  1  0  0  0  0
 10 38  1  0  0  0  0
 11 12  1  0  0  0  0
 11 39  1  0  0  0  0
 11 40  1  0  0  0  0
 12 13  1  0  0  0  0
 12 17  2  0  0  0  0
 13 14  2  0  0  0  0
 13 41  1  0  0  0  0
 14 15  1  0  0  0  0
 14 42  1  0  0  0  0
 15 16  2  0  0  0  0
 15 43  1  0  0  0  0
 16 17  1  0  0  0  0
 16 44  1  0  0  0  0
 17 45  1  0  0  0  0
 18 19  1  0  0  0  0
 18 20  1  0  0  0  0
 18 46  1  0  0  0  0
 19 47  1  0  0  0  0
 20 21  1  0  0  0  0
 20 48  1  0  0  0  0
 20 49  1  0  0  0  0
 21 22  1  0  0  0  0
 21 50  1  0  0  0  0
 21 51  1  0  0  0  0
 22 52  1  0  0  0  0
 22 53  1  0  0  0  0
 22 68  1  0  0  0  0
 23 24  1  0  0  0  0
 23 30  1  0  0  0  0
 24 25  1  0  0  0  0
 24 29  2  0  0  0  0
 25 26  2  0  0  0  0
 25 54  1  0  0  0  0
 26 27  1  0  0  0  0
 26 55  1  0  0  0  0
 27 28  2  0  0  0  0
 27 56  1  0  0  0  0
 28 29  1  0  0  0  0
 28 57  1  0  0  0  0
 29 58  1  0  0  0  0
 30 31  1  0  0  0  0
 30 32  2  0  0  0  0
 30 33  2  0  0  0  0
 31 59  1  0  0  0  0
 31 60  1  0  0  0  0
 31 61  1  0  0  0  0
 62 63  1  0  0  0  0
 62 64  1  0  0  0  0
 62 71  2  0  0  0  0
 64 65  1  0  0  0  0
 64 66  2  0  0  0  0
 66 67  1  0  0  0  0
 66 68  1  0  0  0  0
 68 69  2  0  0  0  0
 69 70  1  0  0  0  0
 69 71  1  0  0  0  0
 71 72  1  0  0  0  0
 72 73  1  0  0  0  0
 72 74  1  0  0  0  0
 72 75  1  0  0  0  0
 76 77  1  0  0  0  0
 76 83  2  0  0  0  0
 76 84  1  0  0  0  0
 77 78  1  0  0  0  0
 77 81  1  0  0  0  0
 77 82  1  0  0  0  0
 78 79  1  0  0  0  0
 78 80  1  0  0  0  0
 78 85  1  0  0  0  0
 84 85  1  0  0  0  0
 85 86  1  0  0  0  0
 85 87  1  0  0  0  0
M  CHG  1  21   1
M  END
>  <PARENT_CMPD_ID>
CHEMBL1210363

>  <STANDARD_TYPE>
IC50

>  <RELATION>
=

>  <STANDARD_VALUE>
6

>  <STANDARD_UNITS>
nM

>  <COMPOUND_KEY>
45

>  <PUBMED_ID>
20579874

>  <JOURNAL>
Bioorg. Med. Chem. Lett.

>  <YEAR>
2010

>  <VOLUME>
20

>  <FIRST_PAGE>
4639

>  <Company>
GSK

>  <idx>
346

>  <Model>
Valid

>  <target>
8.2218485

>  <des_pred_mlr>
7.7155299

>  <RF_Canvas>
7.7542977

>  <DNN_Canvas>
7.8967738

>  <pred_CoMFA>
7.6974001

>  <pred_COMSIA>
8.3288002

>  <pred_abm5>
7.6972055

>  <pred_ff8>
8.350956

>  <pred_gau6>
7.8676491

>  <CID>
BACE_346

>  <active>
1

>  <des_class_bayes>
1

>  <maacs_class_bayes>
1

>  <radial_class_bayes>
1

>  <dend_class_bayes>
1

>  <molprint_class_bayes>
1

>  <RF_canvas>
1

>  <DNN_canvas>
1

$$$$
22380629_60g
  MOE2015           3D
HYDROLASE/HYDROLASE INHIBITOR
 69 71  0  0  1  0  0  0  0  0999 V2000
   28.4400   11.4410   20.8480 C   0  0  0  0  0  0  0  0  0  0  0  0
   29.1770   12.2490   20.7780 H   0  0  0  0  0  0  0  0  0  0  0  0
   27.9250   11.5790   21.8050 H   0  0  0  0  0  0  0  0  0  0  0  0
   27.5840   11.5620   19.7170 O   0  0  0  0  0  0  0  0  0  0  0  0
   26.2310   11.5050   19.9180 C   0  0  0  0  0  0  0  0  0  0  0  0
   25.4590   12.2450   19.0160 C   0  0  0  0  0  0  0  0  0  0  0  0
   24.0730   12.1970   19.1430 C   0  0  0  0  0  0  0  0  0  0  0  0
   23.4530   11.4420   20.1300 C   0  0  0  0  0  0  0  0  0  0  0  0
   22.3680   11.4510   20.1870 H   0  0  0  0  0  0  0  0  0  0  0  0
   24.2170   10.7020   21.0290 C   0  0  0  0  0  0  0  0  0  0  0  0
   25.6110   10.7250   20.9010 C   0  0  0  0  0  0  0  0  0  0  0  0
   26.2080   10.1240   21.5800 H   0  0  0  0  0  0  0  0  0  0  0  0
   23.5650    9.9380   22.1570 C   0  0  0  0  0  0  0  0  0  0  0  0
   24.2970    9.2750   22.6350 H   0  0  0  0  0  0  0  0  0  0  0  0
   22.8010    9.2800   21.7250 H   0  0  0  0  0  0  0  0  0  0  0  0
   22.9360   10.8620   23.2170 C   0  0  3  0  0  0  0  0  0  0  0  0
   22.1540   11.4430   22.7070 H   0  0  0  0  0  0  0  0  0  0  0  0
   22.2450   10.0790   24.3620 C   0  0  3  0  0  0  0  0  0  0  0  0
   22.9830    9.4570   24.8820 H   0  0  0  0  0  0  0  0  0  0  0  0
   21.5350   11.0110   25.3760 C   0  0  3  0  0  0  0  0  0  0  0  0
   20.7260   11.5270   24.8470 H   0  0  0  0  0  0  0  0  0  0  0  0
   22.4610   11.9970   26.0540 C   0  0  0  0  0  0  0  0  0  0  0  0
   23.2640   11.4960   26.6060 H   0  0  0  0  0  0  0  0  0  0  0  0
   21.9280   12.6590   26.7430 H   0  0  0  0  0  0  0  0  0  0  0  0
   23.2110   13.0370   24.8320 S   0  0  0  0  0  0  0  0  0  0  0  0
   23.9780   11.8290   23.7870 C   0  0  0  0  0  0  0  0  0  0  0  0
   24.4820   12.4100   23.0090 H   0  0  0  0  0  0  0  0  0  0  0  0
   24.7400   11.3070   24.3750 H   0  0  0  0  0  0  0  0  0  0  0  0
   24.2440   13.8190   25.4700 O   0  0  0  0  0  0  0  0  0  0  0  0
   22.1620   13.6720   24.0660 O   0  0  0  0  0  0  0  0  0  0  0  0
   20.8610   10.1220   26.4060 N   0  3  0  0  0  0  0  0  0  0  0  0
   21.5520    9.6380   26.9950 H   0  0  0  0  0  0  0  0  0  0  0  0
   20.4200    9.3680   25.8480 H   0  0  0  0  0  0  0  0  0  0  0  0
   19.8180   10.7490   27.2790 C   0  0  0  0  0  0  0  0  0  0  0  0
   20.3390   11.4330   27.9570 H   0  0  0  0  0  0  0  0  0  0  0  0
   19.4070    9.9390   27.8930 H   0  0  0  0  0  0  0  0  0  0  0  0
   18.7130   11.4350   26.5320 C   0  0  0  0  0  0  0  0  0  0  0  0
   17.7990   10.6920   25.7780 C   0  0  0  0  0  0  0  0  0  0  0  0
   17.8890    9.6060   25.7690 H   0  0  0  0  0  0  0  0  0  0  0  0
   16.7780   11.2980   25.0320 C   0  0  0  0  0  0  0  0  0  0  0  0
   16.7100   12.6920   25.0650 C   0  0  0  0  0  0  0  0  0  0  0  0
   15.9540   13.2370   24.5060 H   0  0  0  0  0  0  0  0  0  0  0  0
   17.6080   13.4440   25.8150 C   0  0  0  0  0  0  0  0  0  0  0  0
   17.5280   14.5290   25.8210 H   0  0  0  0  0  0  0  0  0  0  0  0
   18.6030   12.8210   26.5470 C   0  0  0  0  0  0  0  0  0  0  0  0
   19.2930   13.4360   27.1210 H   0  0  0  0  0  0  0  0  0  0  0  0
   15.8100   10.4420   24.2140 C   0  0  0  0  0  0  0  0  0  0  0  0
   15.1560    9.3770   25.1070 C   0  0  0  0  0  0  0  0  0  0  0  0
   14.6400    9.8360   25.9590 H   0  0  0  0  0  0  0  0  0  0  0  0
   15.8810    8.6620   25.5110 H   0  0  0  0  0  0  0  0  0  0  0  0
   14.4170    8.7900   24.5500 H   0  0  0  0  0  0  0  0  0  0  0  0
   14.6670   11.2380   23.5660 C   0  0  0  0  0  0  0  0  0  0  0  0
   14.0670   11.7680   24.3150 H   0  0  0  0  0  0  0  0  0  0  0  0
   13.9850   10.5800   23.0140 H   0  0  0  0  0  0  0  0  0  0  0  0
   15.0410   11.9770   22.8470 H   0  0  0  0  0  0  0  0  0  0  0  0
   16.5810    9.7470   23.0850 C   0  0  0  0  0  0  0  0  0  0  0  0
   17.3610    9.0780   23.4660 H   0  0  0  0  0  0  0  0  0  0  0  0
   17.0720   10.4770   22.4300 H   0  0  0  0  0  0  0  0  0  0  0  0
   15.9140    9.1390   22.4620 H   0  0  0  0  0  0  0  0  0  0  0  0
   21.2330    9.1980   23.8630 O   0  0  0  0  0  0  0  0  0  0  0  0
   20.7550    9.6260   23.1270 H   0  0  0  0  0  0  0  0  0  0  0  0
   23.3120   12.9020   18.2990 F   0  0  0  0  0  0  0  0  0  0  0  0
   26.0660   13.0090   18.0280 N   0  0  0  0  0  0  0  0  0  0  0  0
   25.5070   13.5520   17.3840 H   0  0  0  0  0  0  0  0  0  0  0  0
   27.0770   13.0060   17.9630 H   0  0  0  0  0  0  0  0  0  0  0  0
   29.1590   10.1130   20.7810 C   0  0  0  0  0  0  0  0  0  0  0  0
   28.4830    9.2610   20.6770 H   0  0  0  0  0  0  0  0  0  0  0  0
   29.9200    9.9550   21.8840 F   0  0  0  0  0  0  0  0  0  0  0  0
   30.0100   10.1180   19.7330 F   0  0  0  0  0  0  0  0  0  0  0  0
  1  2  1  0  0  0  0
  1  3  1  0  0  0  0
  1  4  1  0  0  0  0
  1 66  1  0  0  0  0
  4  5  1  0  0  0  0
  5  6  1  0  0  0  0
  5 11  2  0  0  0  0
  6  7  2  0  0  0  0
  6 63  1  0  0  0  0
  7  8  1  0  0  0  0
  7 62  1  0  0  0  0
  8  9  1  0  0  0  0
  8 10  2  0  0  0  0
 10 11  1  0  0  0  0
 10 13  1  0  0  0  0
 11 12  1  0  0  0  0
 13 14  1  0  0  0  0
 13 15  1  0  0  0  0
 13 16  1  0  0  0  0
 16 17  1  0  0  0  0
 16 18  1  0  0  0  0
 16 26  1  0  0  0  0
 18 19  1  0  0  0  0
 18 20  1  0  0  0  0
 18 60  1  0  0  0  0
 20 21  1  0  0  0  0
 20 22  1  0  0  0  0
 20 31  1  0  0  0  0
 22 23  1  0  0  0  0
 22 24  1  0  0  0  0
 22 25  1  0  0  0  0
 25 26  1  0  0  0  0
 25 29  2  0  0  0  0
 25 30  2  0  0  0  0
 26 27  1  0  0  0  0
 26 28  1  0  0  0  0
 31 32  1  0  0  0  0
 31 33  1  0  0  0  0
 31 34  1  0  0  0  0
 34 35  1  0  0  0  0
 34 36  1  0  0  0  0
 34 37  1  0  0  0  0
 37 38  1  0  0  0  0
 37 45  2  0  0  0  0
 38 39  1  0  0  0  0
 38 40  2  0  0  0  0
 40 41  1  0  0  0  0
 40 47  1  0  0  0  0
 41 42  1  0  0  0  0
 41 43  2  0  0  0  0
 43 44  1  0  0  0  0
 43 45  1  0  0  0  0
 45 46  1  0  0  0  0
 47 48  1  0  0  0  0
 47 52  1  0  0  0  0
 47 56  1  0  0  0  0
 48 49  1  0  0  0  0
 48 50  1  0  0  0  0
 48 51  1  0  0  0  0
 52 53  1  0  0  0  0
 52 54  1  0  0  0  0
 52 55  1  0  0  0  0
 56 57  1  0  0  0  0
 56 58  1  0  0  0  0
 56 59  1  0  0  0  0
 60 61  1  0  0  0  0
 63 64  1  0  0  0  0
 63 65  1  0  0  0  0
 66 67  1  0  0  0  0
 66 68  1  0  0  0  0
 66 69  1  0  0  0  0
M  CHG  1  31   1
M  END
>  <PARENT_CMPD_ID>
22380629_60g

>  <STANDARD_TYPE>
IC50

>  <RELATION>
=

>  <STANDARD_VALUE>
6

>  <STANDARD_UNITS>
nM

>  <COMPOUND_KEY>
60g

>  <PUBMED_ID>
22380629

>  <JOURNAL>
J.Med.Chem.

>  <YEAR>
2012

>  <VOLUME>
55

>  <FIRST_PAGE>
3364

>  <Company>
Novartis

>  <idx>
347

>  <Model>
Valid

>  <target>
8.2218485

>  <des_pred_mlr>
7.2239399

>  <RF_Canvas>
7.3168883

>  <DNN_Canvas>
7.3428292

>  <pred_CoMFA>
7.6069002

>  <pred_COMSIA>
7.2146001

>  <pred_abm5>
7.6541429

>  <pred_ff8>
7.7266655

>  <pred_gau6>
7.2716722

>  <CID>
BACE_347

>  <active>
1

>  <des_class_bayes>
1

>  <maacs_class_bayes>
1

>  <radial_class_bayes>
1

>  <dend_class_bayes>
1

>  <molprint_class_bayes>
1

>  <RF_canvas>
1

>  <DNN_canvas>
1

$$$$
22380629_60h
  MOE2015           3D
HYDROLASE/HYDROLASE INHIBITOR
 69 71  0  0  1  0  0  0  0  0999 V2000
   28.1570   10.6610   20.9010 C   0  0  0  0  0  0  0  0  0  0  0  0
   27.9740   11.2160   21.8290 H   0  0  0  0  0  0  0  0  0  0  0  0
   27.8080    9.6260   21.0020 H   0  0  0  0  0  0  0  0  0  0  0  0
   27.4920   11.2980   19.8060 O   0  0  0  0  0  0  0  0  0  0  0  0
   26.1270   11.3810   19.9510 C   0  0  0  0  0  0  0  0  0  0  0  0
   25.4370   12.1850   19.0400 C   0  0  0  0  0  0  0  0  0  0  0  0
   24.0430   12.2210   19.1300 C   0  0  0  0  0  0  0  0  0  0  0  0
   23.3410   11.5000   20.0880 C   0  0  0  0  0  0  0  0  0  0  0  0
   22.2580   11.5770   20.1140 H   0  0  0  0  0  0  0  0  0  0  0  0
   24.0280   10.7100   20.9990 C   0  0  0  0  0  0  0  0  0  0  0  0
   25.4140   10.6570   20.9140 C   0  0  0  0  0  0  0  0  0  0  0  0
   25.9190   10.0230   21.6360 H   0  0  0  0  0  0  0  0  0  0  0  0
   23.3460    9.9560   22.1060 C   0  0  0  0  0  0  0  0  0  0  0  0
   24.0210    9.2000   22.5290 H   0  0  0  0  0  0  0  0  0  0  0  0
   22.5130    9.3920   21.6680 H   0  0  0  0  0  0  0  0  0  0  0  0
   22.8410   10.8790   23.2200 C   0  0  3  0  0  0  0  0  0  0  0  0
   22.0540   11.4950   22.7620 H   0  0  0  0  0  0  0  0  0  0  0  0
   22.1870   10.0920   24.3770 C   0  0  3  0  0  0  0  0  0  0  0  0
   22.9430    9.4750   24.8800 H   0  0  0  0  0  0  0  0  0  0  0  0
   21.5010   11.0220   25.4020 C   0  0  3  0  0  0  0  0  0  0  0  0
   20.6910   11.5470   24.8840 H   0  0  0  0  0  0  0  0  0  0  0  0
   22.4490   12.0000   26.0650 C   0  0  0  0  0  0  0  0  0  0  0  0
   23.2500   11.4900   26.6110 H   0  0  0  0  0  0  0  0  0  0  0  0
   21.9310   12.6710   26.7560 H   0  0  0  0  0  0  0  0  0  0  0  0
   23.2060   13.0270   24.8320 S   0  0  0  0  0  0  0  0  0  0  0  0
   23.9320   11.8040   23.7680 C   0  0  0  0  0  0  0  0  0  0  0  0
   24.4340   12.3780   22.9850 H   0  0  0  0  0  0  0  0  0  0  0  0
   24.6890   11.2580   24.3400 H   0  0  0  0  0  0  0  0  0  0  0  0
   24.2530   13.7960   25.4620 O   0  0  0  0  0  0  0  0  0  0  0  0
   22.1580   13.6790   24.0770 O   0  0  0  0  0  0  0  0  0  0  0  0
   20.8390   10.1340   26.4360 N   0  3  0  0  0  0  0  0  0  0  0  0
   21.5340    9.6580   27.0270 H   0  0  0  0  0  0  0  0  0  0  0  0
   20.3980    9.3730   25.8870 H   0  0  0  0  0  0  0  0  0  0  0  0
   19.7950   10.7630   27.3060 C   0  0  0  0  0  0  0  0  0  0  0  0
   20.3160   11.4510   27.9800 H   0  0  0  0  0  0  0  0  0  0  0  0
   19.3830    9.9560   27.9220 H   0  0  0  0  0  0  0  0  0  0  0  0
   18.6950   11.4450   26.5500 C   0  0  0  0  0  0  0  0  0  0  0  0
   17.7860   10.6980   25.7920 C   0  0  0  0  0  0  0  0  0  0  0  0
   17.8740    9.6130   25.7920 H   0  0  0  0  0  0  0  0  0  0  0  0
   16.7730   11.3020   25.0340 C   0  0  0  0  0  0  0  0  0  0  0  0
   16.7080   12.6960   25.0550 C   0  0  0  0  0  0  0  0  0  0  0  0
   15.9590   13.2390   24.4860 H   0  0  0  0  0  0  0  0  0  0  0  0
   17.6010   13.4520   25.8080 C   0  0  0  0  0  0  0  0  0  0  0  0
   17.5230   14.5370   25.8050 H   0  0  0  0  0  0  0  0  0  0  0  0
   18.5880   12.8310   26.5550 C   0  0  0  0  0  0  0  0  0  0  0  0
   19.2740   13.4490   27.1300 H   0  0  0  0  0  0  0  0  0  0  0  0
   15.8090   10.4420   24.2140 C   0  0  0  0  0  0  0  0  0  0  0  0
   15.1550    9.3770   25.1050 C   0  0  0  0  0  0  0  0  0  0  0  0
   14.6360    9.8350   25.9560 H   0  0  0  0  0  0  0  0  0  0  0  0
   15.8790    8.6610   25.5100 H   0  0  0  0  0  0  0  0  0  0  0  0
   14.4160    8.7890   24.5460 H   0  0  0  0  0  0  0  0  0  0  0  0
   14.6670   11.2360   23.5620 C   0  0  0  0  0  0  0  0  0  0  0  0
   14.0650   11.7670   24.3090 H   0  0  0  0  0  0  0  0  0  0  0  0
   13.9860   10.5750   23.0100 H   0  0  0  0  0  0  0  0  0  0  0  0
   15.0400   11.9730   22.8420 H   0  0  0  0  0  0  0  0  0  0  0  0
   16.5860    9.7490   23.0880 C   0  0  0  0  0  0  0  0  0  0  0  0
   17.3670    9.0830   23.4720 H   0  0  0  0  0  0  0  0  0  0  0  0
   17.0760   10.4800   22.4330 H   0  0  0  0  0  0  0  0  0  0  0  0
   15.9230    9.1380   22.4640 H   0  0  0  0  0  0  0  0  0  0  0  0
   21.1860    9.2000   23.8850 O   0  0  0  0  0  0  0  0  0  0  0  0
   20.6440    9.6470   23.2070 H   0  0  0  0  0  0  0  0  0  0  0  0
   23.3520   12.9780   18.2690 F   0  0  0  0  0  0  0  0  0  0  0  0
   26.1020   12.9370   18.0810 N   0  0  0  0  0  0  0  0  0  0  0  0
   25.5840   13.5190   17.4370 H   0  0  0  0  0  0  0  0  0  0  0  0
   27.1120   12.8880   18.0340 H   0  0  0  0  0  0  0  0  0  0  0  0
   29.6280   10.5700   20.6640 C   0  0  0  0  0  0  0  0  0  0  0  0
   29.9040    9.8900   19.5420 F   0  0  0  0  0  0  0  0  0  0  0  0
   30.2140    9.9230   21.6880 F   0  0  0  0  0  0  0  0  0  0  0  0
   30.1840   11.7890   20.5730 F   0  0  0  0  0  0  0  0  0  0  0  0
  1  2  1  0  0  0  0
  1  3  1  0  0  0  0
  1  4  1  0  0  0  0
  1 66  1  0  0  0  0
  4  5  1  0  0  0  0
  5  6  1  0  0  0  0
  5 11  2  0  0  0  0
  6  7  2  0  0  0  0
  6 63  1  0  0  0  0
  7  8  1  0  0  0  0
  7 62  1  0  0  0  0
  8  9  1  0  0  0  0
  8 10  2  0  0  0  0
 10 11  1  0  0  0  0
 10 13  1  0  0  0  0
 11 12  1  0  0  0  0
 13 14  1  0  0  0  0
 13 15  1  0  0  0  0
 13 16  1  0  0  0  0
 16 17  1  0  0  0  0
 16 18  1  0  0  0  0
 16 26  1  0  0  0  0
 18 19  1  0  0  0  0
 18 20  1  0  0  0  0
 18 60  1  0  0  0  0
 20 21  1  0  0  0  0
 20 22  1  0  0  0  0
 20 31  1  0  0  0  0
 22 23  1  0  0  0  0
 22 24  1  0  0  0  0
 22 25  1  0  0  0  0
 25 26  1  0  0  0  0
 25 29  2  0  0  0  0
 25 30  2  0  0  0  0
 26 27  1  0  0  0  0
 26 28  1  0  0  0  0
 31 32  1  0  0  0  0
 31 33  1  0  0  0  0
 31 34  1  0  0  0  0
 34 35  1  0  0  0  0
 34 36  1  0  0  0  0
 34 37  1  0  0  0  0
 37 38  1  0  0  0  0
 37 45  2  0  0  0  0
 38 39  1  0  0  0  0
 38 40  2  0  0  0  0
 40 41  1  0  0  0  0
 40 47  1  0  0  0  0
 41 42  1  0  0  0  0
 41 43  2  0  0  0  0
 43 44  1  0  0  0  0
 43 45  1  0  0  0  0
 45 46  1  0  0  0  0
 47 48  1  0  0  0  0
 47 52  1  0  0  0  0
 47 56  1  0  0  0  0
 48 49  1  0  0  0  0
 48 50  1  0  0  0  0
 48 51  1  0  0  0  0
 52 53  1  0  0  0  0
 52 54  1  0  0  0  0
 52 55  1  0  0  0  0
 56 57  1  0  0  0  0
 56 58  1  0  0  0  0
 56 59  1  0  0  0  0
 60 61  1  0  0  0  0
 63 64  1  0  0  0  0
 63 65  1  0  0  0  0
 66 67  1  0  0  0  0
 66 68  1  0  0  0  0
 66 69  1  0  0  0  0
M  CHG  1  31   1
M  END
>  <PARENT_CMPD_ID>
22380629_60h

>  <STANDARD_TYPE>
IC50

>  <RELATION>
=

>  <STANDARD_VALUE>
6

>  <STANDARD_UNITS>
nM

>  <COMPOUND_KEY>
60h

>  <PUBMED_ID>
22380629

>  <JOURNAL>
J.Med.Chem.

>  <YEAR>
2012

>  <VOLUME>
55

>  <FIRST_PAGE>
3364

>  <Company>
Novartis

>  <idx>
348

>  <Model>
Valid

>  <target>
8.2218485

>  <des_pred_mlr>
7.3206

>  <RF_Canvas>
7.6020417

>  <DNN_Canvas>
7.4320498

>  <pred_CoMFA>
7.7350998

>  <pred_COMSIA>
7.3235002

>  <pred_abm5>
7.91853

>  <pred_ff8>
7.685041

>  <pred_gau6>
7.5319705

>  <CID>
BACE_348

>  <active>
1

>  <des_class_bayes>
0

>  <maacs_class_bayes>
1

>  <radial_class_bayes>
0

>  <dend_class_bayes>
1

>  <molprint_class_bayes>
1

>  <RF_canvas>
1

>  <DNN_canvas>
1

$$$$
22380629_62f
  MOE2015           3D
HYDROLASE/HYDROLASE INHIBITOR
 71 74  0  0  1  0  0  0  0  0999 V2000
   29.9590   10.1350   19.6700 F   0  0  0  0  0  0  0  0  0  0  0  0
   29.2360   10.1980   20.7980 C   0  0  0  0  0  0  0  0  0  0  0  0
   28.4530    9.1020   20.8350 F   0  0  0  0  0  0  0  0  0  0  0  0
   30.0850   10.1000   21.8330 F   0  0  0  0  0  0  0  0  0  0  0  0
   28.3960   11.4410   20.8750 C   0  0  0  0  0  0  0  0  0  0  0  0
   27.8300   11.4640   21.8130 H   0  0  0  0  0  0  0  0  0  0  0  0
   27.5590   11.5210   19.7160 O   0  0  0  0  0  0  0  0  0  0  0  0
   26.2040   11.4750   19.9060 C   0  0  0  0  0  0  0  0  0  0  0  0
   25.4420   12.2340   19.0120 C   0  0  0  0  0  0  0  0  0  0  0  0
   24.0560   12.2030   19.1440 C   0  0  0  0  0  0  0  0  0  0  0  0
   23.4290   11.4530   20.1300 C   0  0  0  0  0  0  0  0  0  0  0  0
   22.3450   11.4800   20.1940 H   0  0  0  0  0  0  0  0  0  0  0  0
   24.1850   10.6930   21.0190 C   0  0  0  0  0  0  0  0  0  0  0  0
   25.5760   10.6890   20.8780 C   0  0  0  0  0  0  0  0  0  0  0  0
   26.1650   10.0550   21.5360 H   0  0  0  0  0  0  0  0  0  0  0  0
   23.5310    9.9340   22.1490 C   0  0  0  0  0  0  0  0  0  0  0  0
   24.2600    9.2620   22.6210 H   0  0  0  0  0  0  0  0  0  0  0  0
   22.7590    9.2840   21.7190 H   0  0  0  0  0  0  0  0  0  0  0  0
   22.9180   10.8600   23.2150 C   0  0  3  0  0  0  0  0  0  0  0  0
   22.1300   11.4390   22.7120 H   0  0  0  0  0  0  0  0  0  0  0  0
   22.2400   10.0770   24.3670 C   0  0  3  0  0  0  0  0  0  0  0  0
   22.9860    9.4570   24.8790 H   0  0  0  0  0  0  0  0  0  0  0  0
   21.5360   11.0030   25.3910 C   0  0  3  0  0  0  0  0  0  0  0  0
   20.7160   11.5110   24.8720 H   0  0  0  0  0  0  0  0  0  0  0  0
   22.4620   11.9980   26.0540 C   0  0  0  0  0  0  0  0  0  0  0  0
   23.2720   11.5050   26.6030 H   0  0  0  0  0  0  0  0  0  0  0  0
   21.9310   12.6620   26.7440 H   0  0  0  0  0  0  0  0  0  0  0  0
   23.1970   13.0370   24.8240 S   0  0  0  0  0  0  0  0  0  0  0  0
   23.9620   11.8290   23.7750 C   0  0  0  0  0  0  0  0  0  0  0  0
   24.4600   12.4090   22.9930 H   0  0  0  0  0  0  0  0  0  0  0  0
   24.7290   11.3110   24.3590 H   0  0  0  0  0  0  0  0  0  0  0  0
   24.2300   13.8220   25.4570 O   0  0  0  0  0  0  0  0  0  0  0  0
   22.1410   13.6680   24.0630 O   0  0  0  0  0  0  0  0  0  0  0  0
   20.8890   10.1110   26.4350 N   0  3  0  0  0  0  0  0  0  0  0  0
   21.5970    9.6390   27.0130 H   0  0  0  0  0  0  0  0  0  0  0  0
   20.4460    9.3480   25.8920 H   0  0  0  0  0  0  0  0  0  0  0  0
   19.8590   10.7370   27.3240 C   0  0  0  0  0  0  0  0  0  0  0  0
   20.3820   11.4440   27.9770 H   0  0  0  0  0  0  0  0  0  0  0  0
   19.4730    9.9330   27.9600 H   0  0  0  0  0  0  0  0  0  0  0  0
   18.7340   11.3860   26.5760 C   0  0  0  0  0  0  0  0  0  0  0  0
   17.8440   10.5970   25.8430 C   0  0  0  0  0  0  0  0  0  0  0  0
   17.9150    9.5130   25.8490 H   0  0  0  0  0  0  0  0  0  0  0  0
   16.8700   11.2140   25.0890 C   0  0  0  0  0  0  0  0  0  0  0  0
   16.7630   12.5890   25.0650 C   0  0  0  0  0  0  0  0  0  0  0  0
   15.6650   12.9810   24.1550 C   0  0  0  0  0  0  0  0  0  0  0  0
   16.0420   13.4580   23.2460 H   0  0  0  0  0  0  0  0  0  0  0  0
   14.9270   13.6220   24.6450 H   0  0  0  0  0  0  0  0  0  0  0  0
   17.6140   13.3920   25.7910 C   0  0  0  0  0  0  0  0  0  0  0  0
   17.5250   14.4740   25.7620 H   0  0  0  0  0  0  0  0  0  0  0  0
   18.6040   12.7830   26.5520 C   0  0  0  0  0  0  0  0  0  0  0  0
   19.2870   13.4160   27.1160 H   0  0  0  0  0  0  0  0  0  0  0  0
   15.8350   10.6150   24.2050 C   0  0  0  0  0  0  0  0  0  0  0  0
   14.9480    9.6270   24.9410 C   0  0  0  0  0  0  0  0  0  0  0  0
   14.4760   10.0930   25.8140 H   0  0  0  0  0  0  0  0  0  0  0  0
   15.5040    8.7490   25.2860 H   0  0  0  0  0  0  0  0  0  0  0  0
   14.1300    9.2830   24.2980 H   0  0  0  0  0  0  0  0  0  0  0  0
   15.0210   11.7400   23.7910 O   0  0  0  0  0  0  0  0  0  0  0  0
   16.4440    9.9730   22.9700 C   0  0  0  0  0  0  0  0  0  0  0  0
   17.0850    9.1210   23.2230 H   0  0  0  0  0  0  0  0  0  0  0  0
   17.0470   10.6930   22.4040 H   0  0  0  0  0  0  0  0  0  0  0  0
   15.6610    9.6240   22.2850 H   0  0  0  0  0  0  0  0  0  0  0  0
   21.2330    9.1940   23.8670 O   0  0  0  0  0  0  0  0  0  0  0  0
   20.6850    9.6510   23.2000 H   0  0  0  0  0  0  0  0  0  0  0  0
   23.3030   12.9240   18.3070 F   0  0  0  0  0  0  0  0  0  0  0  0
   26.0560   13.0030   18.0330 N   0  0  0  0  0  0  0  0  0  0  0  0
   25.4990   13.5590   17.3980 H   0  0  0  0  0  0  0  0  0  0  0  0
   27.0660   12.9960   17.9580 H   0  0  0  0  0  0  0  0  0  0  0  0
   29.3280   12.6190   20.8750 C   0  0  0  0  0  0  0  0  0  0  0  0
   30.1190   12.6520   19.7870 F   0  0  0  0  0  0  0  0  0  0  0  0
   30.1210   12.6100   21.9640 F   0  0  0  0  0  0  0  0  0  0  0  0
   28.6310   13.7800   20.9070 F   0  0  0  0  0  0  0  0  0  0  0  0
  1  2  1  0  0  0  0
  2  3  1  0  0  0  0
  2  4  1  0  0  0  0
  2  5  1  0  0  0  0
  5  6  1  0  0  0  0
  5  7  1  0  0  0  0
  5 68  1  0  0  0  0
  7  8  1  0  0  0  0
  8  9  1  0  0  0  0
  8 14  2  0  0  0  0
  9 10  2  0  0  0  0
  9 65  1  0  0  0  0
 10 11  1  0  0  0  0
 10 64  1  0  0  0  0
 11 12  1  0  0  0  0
 11 13  2  0  0  0  0
 13 14  1  0  0  0  0
 13 16  1  0  0  0  0
 14 15  1  0  0  0  0
 16 17  1  0  0  0  0
 16 18  1  0  0  0  0
 16 19  1  0  0  0  0
 19 20  1  0  0  0  0
 19 21  1  0  0  0  0
 19 29  1  0  0  0  0
 21 22  1  0  0  0  0
 21 23  1  0  0  0  0
 21 62  1  0  0  0  0
 23 24  1  0  0  0  0
 23 25  1  0  0  0  0
 23 34  1  0  0  0  0
 25 26  1  0  0  0  0
 25 27  1  0  0  0  0
 25 28  1  0  0  0  0
 28 29  1  0  0  0  0
 28 32  2  0  0  0  0
 28 33  2  0  0  0  0
 29 30  1  0  0  0  0
 29 31  1  0  0  0  0
 34 35  1  0  0  0  0
 34 36  1  0  0  0  0
 34 37  1  0  0  0  0
 37 38  1  0  0  0  0
 37 39  1  0  0  0  0
 37 40  1  0  0  0  0
 40 41  1  0  0  0  0
 40 50  2  0  0  0  0
 41 42  1  0  0  0  0
 41 43  2  0  0  0  0
 43 44  1  0  0  0  0
 43 52  1  0  0  0  0
 44 45  1  0  0  0  0
 44 48  2  0  0  0  0
 45 46  1  0  0  0  0
 45 47  1  0  0  0  0
 45 57  1  0  0  0  0
 48 49  1  0  0  0  0
 48 50  1  0  0  0  0
 50 51  1  0  0  0  0
 52 53  1  0  0  0  0
 52 57  1  0  0  0  0
 52 58  1  0  0  0  0
 53 54  1  0  0  0  0
 53 55  1  0  0  0  0
 53 56  1  0  0  0  0
 58 59  1  0  0  0  0
 58 60  1  0  0  0  0
 58 61  1  0  0  0  0
 62 63  1  0  0  0  0
 65 66  1  0  0  0  0
 65 67  1  0  0  0  0
 68 69  1  0  0  0  0
 68 70  1  0  0  0  0
 68 71  1  0  0  0  0
M  CHG  1  34   1
M  END
>  <PARENT_CMPD_ID>
22380629_62f

>  <STANDARD_TYPE>
IC50

>  <RELATION>
=

>  <STANDARD_VALUE>
6

>  <STANDARD_UNITS>
nM

>  <COMPOUND_KEY>
62f

>  <PUBMED_ID>
22380629

>  <JOURNAL>
J.Med.Chem.

>  <YEAR>
2012

>  <VOLUME>
55

>  <FIRST_PAGE>
3364

>  <Company>
Novartis

>  <idx>
349

>  <Model>
Valid

>  <target>
8.2218485

>  <des_pred_mlr>
7.9603801

>  <RF_Canvas>
7.6058636

>  <DNN_Canvas>
8.3584299

>  <pred_CoMFA>
8.2667999

>  <pred_COMSIA>
7.5441999

>  <pred_abm5>
7.7155499

>  <pred_ff8>
7.6071177

>  <pred_gau6>
8.1537285

>  <CID>
BACE_349

>  <active>
1

>  <des_class_bayes>
0

>  <maacs_class_bayes>
1

>  <radial_class_bayes>
1

>  <dend_class_bayes>
1

>  <molprint_class_bayes>
1

>  <RF_canvas>
1

>  <DNN_canvas>
1

$$$$
23590342_14r
  MOE2015           3D

 49 51  0  0  1  0  0  0  0  0999 V2000
   22.5960   12.2040   23.3650 C   0  0  0  0  0  0  0  0  0  0  0  0
   21.5570   11.7840   22.3640 C   0  0  0  0  0  0  0  0  0  0  0  0
   22.9120   11.1640   24.2970 O   0  0  0  0  0  0  0  0  0  0  0  0
   22.6710    9.8790   23.9620 C   0  0  0  0  0  0  0  0  0  0  0  0
   22.2220    9.4610   22.8370 N   0  0  0  0  0  0  0  0  0  0  0  0
   21.9160   10.4200   21.7620 C   0  0  3  0  0  0  0  0  0  0  0  0
   23.0800   10.5580   20.7730 C   0  0  0  0  0  0  0  0  0  0  0  0
   24.3950   10.2460   21.1520 C   0  0  0  0  0  0  0  0  0  0  0  0
   25.4850   10.4690   20.3050 C   0  0  0  0  0  0  0  0  0  0  0  0
   25.2540   10.9640   19.0280 C   0  0  0  0  0  0  0  0  0  0  0  0
   23.9630   11.2520   18.6170 C   0  0  0  0  0  0  0  0  0  0  0  0
   22.9030   11.0620   19.4860 C   0  0  0  0  0  0  0  0  0  0  0  0
   21.6910   11.4040   19.0510 F   0  0  0  0  0  0  0  0  0  0  0  0
   22.9730    9.0370   24.9660 N   0  0  0  0  0  0  0  0  0  0  0  0
   20.6700    9.8320   21.0740 C   0  0  0  0  0  0  0  0  0  0  0  0
   26.7620   10.1970   20.8200 N   0  0  0  0  0  0  0  0  0  0  0  0
   27.9790   10.4970   20.2440 C   0  0  0  0  0  0  0  0  0  0  0  0
   29.1140   10.0590   21.0880 C   0  0  0  0  0  0  0  0  0  0  0  0
   28.1380   11.0950   19.1910 O   0  0  0  0  0  0  0  0  0  0  0  0
   28.7820    9.2440   22.1200 N   0  0  0  0  0  0  0  0  0  0  0  0
   29.8000    8.8860   22.9270 C   0  0  0  0  0  0  0  0  0  0  0  0
   31.0930    9.3140   22.7150 C   0  0  0  0  0  0  0  0  0  0  0  0
   31.4270   10.1160   21.6830 N   0  0  0  0  0  0  0  0  0  0  0  0
   30.4070   10.4820   20.8670 C   0  0  0  0  0  0  0  0  0  0  0  0
   32.0390    8.8850   23.6090 O   0  0  0  0  0  0  0  0  0  0  0  0
   20.3640   11.7180   23.0050 F   0  0  0  0  0  0  0  0  0  0  0  0
   21.4220   12.7330   21.4180 F   0  0  0  0  0  0  0  0  0  0  0  0
   33.3480    9.3640   23.3360 C   0  0  0  0  0  0  0  0  0  0  0  0
   22.2260   13.0550   23.9450 H   0  0  0  0  0  0  0  0  0  0  0  0
   23.5240   12.5310   22.8850 H   0  0  0  0  0  0  0  0  0  0  0  0
   24.5900    9.8480   22.1440 H   0  0  0  0  0  0  0  0  0  0  0  0
   26.0610   11.1360   18.3230 H   0  0  0  0  0  0  0  0  0  0  0  0
   23.7780   11.6460   17.6220 H   0  0  0  0  0  0  0  0  0  0  0  0
   22.8290    8.0450   24.8450 H   0  0  0  0  0  0  0  0  0  0  0  0
   23.3440    9.3910   25.8350 H   0  0  0  0  0  0  0  0  0  0  0  0
   19.9150    9.5380   21.8150 H   0  0  0  0  0  0  0  0  0  0  0  0
   20.9190    8.9300   20.5010 H   0  0  0  0  0  0  0  0  0  0  0  0
   20.1800   10.5400   20.4000 H   0  0  0  0  0  0  0  0  0  0  0  0
   26.8280    9.7320   21.7260 H   0  0  0  0  0  0  0  0  0  0  0  0
   29.5490    8.2360   23.7570 H   0  0  0  0  0  0  0  0  0  0  0  0
   30.6680   11.1350   20.0420 H   0  0  0  0  0  0  0  0  0  0  0  0
   33.3720   10.4600   23.3770 H   0  0  0  0  0  0  0  0  0  0  0  0
   33.6830    9.0250   22.3480 H   0  0  0  0  0  0  0  0  0  0  0  0
   34.2340    8.8190   24.3620 C   0  0  0  0  0  0  0  0  0  0  0  0
   34.9410    8.3600   25.2140 C   0  0  0  0  0  0  0  0  0  0  0  0
   35.7980    7.7970   26.2550 C   0  0  0  0  0  0  0  0  0  0  0  0
   36.3410    8.5870   26.7830 H   0  0  0  0  0  0  0  0  0  0  0  0
   36.5330    7.1100   25.8250 H   0  0  0  0  0  0  0  0  0  0  0  0
   35.2060    7.2440   26.9910 H   0  0  0  0  0  0  0  0  0  0  0  0
  1  2  1  0  0  0  0
  1  3  1  0  0  0  0
  1 29  1  0  0  0  0
  1 30  1  0  0  0  0
  2  6  1  0  0  0  0
  2 26  1  0  0  0  0
  2 27  1  0  0  0  0
  3  4  1  0  0  0  0
  4  5  2  0  0  0  0
  4 14  1  0  0  0  0
  5  6  1  0  0  0  0
  6  7  1  0  0  0  0
  6 15  1  0  0  0  0
  7  8  1  0  0  0  0
  7 12  2  0  0  0  0
  8  9  2  0  0  0  0
  8 31  1  0  0  0  0
  9 10  1  0  0  0  0
  9 16  1  0  0  0  0
 10 11  2  0  0  0  0
 10 32  1  0  0  0  0
 11 12  1  0  0  0  0
 11 33  1  0  0  0  0
 12 13  1  0  0  0  0
 14 34  1  0  0  0  0
 14 35  1  0  0  0  0
 15 36  1  0  0  0  0
 15 37  1  0  0  0  0
 15 38  1  0  0  0  0
 16 17  1  0  0  0  0
 16 39  1  0  0  0  0
 17 18  1  0  0  0  0
 17 19  2  0  0  0  0
 18 20  1  0  0  0  0
 18 24  2  0  0  0  0
 20 21  2  0  0  0  0
 21 22  1  0  0  0  0
 21 40  1  0  0  0  0
 22 23  2  0  0  0  0
 22 25  1  0  0  0  0
 23 24  1  0  0  0  0
 24 41  1  0  0  0  0
 25 28  1  0  0  0  0
 28 42  1  0  0  0  0
 28 43  1  0  0  0  0
 28 44  1  0  0  0  0
 44 45  3  0  0  0  0
 45 46  1  0  0  0  0
 46 47  1  0  0  0  0
 46 48  1  0  0  0  0
 46 49  1  0  0  0  0
M  END
>  <PARENT_CMPD_ID>
23590342_14r

>  <STANDARD_TYPE>
IC50

>  <RELATION>
=

>  <STANDARD_VALUE>
0.0060000001

>  <STANDARD_UNITS>
uM

>  <COMPOUND_KEY>
14r

>  <PUBMED_ID>
23590342

>  <JOURNAL>
J.Med.Chem.

>  <YEAR>
2013

>  <VOLUME>
56

>  <FIRST_PAGE>
3980

>  <Company>
Roche

>  <idx>
350

>  <Model>
Valid

>  <target>
8.2218485

>  <des_pred_mlr>
6.8449302

>  <RF_Canvas>
7.0841422

>  <DNN_Canvas>
7.1605506

>  <pred_CoMFA>
6.744

>  <pred_COMSIA>
6.7420998

>  <pred_abm5>
6.7165499

>  <pred_ff8>
5.4862514

>  <pred_gau6>
6.8138924

>  <CID>
BACE_350

>  <active>
1

>  <des_class_bayes>
1

>  <maacs_class_bayes>
1

>  <radial_class_bayes>
1

>  <dend_class_bayes>
1

>  <molprint_class_bayes>
1

>  <RF_canvas>
1

>  <DNN_canvas>
1

$$$$
22924815_(R)-19
  MOE2015           3D

 53 57  0  0  1  0  0  0  0  0999 V2000
   17.0090   11.5630   21.1880 C   0  0  0  0  0  0  0  0  0  0  0  0
   18.1330   10.7260   20.8100 N   0  0  0  0  0  0  0  0  0  0  0  0
   19.3770   11.0470   21.3060 C   0  0  0  0  0  0  0  0  0  0  0  0
   20.4740   10.3180   21.0460 C   0  0  0  0  0  0  0  0  0  0  0  0
   20.3030    9.1320   20.2290 C   0  0  0  0  0  0  0  0  0  0  0  0
   19.1210    8.7840   19.7060 C   0  0  0  0  0  0  0  0  0  0  0  0
   17.9230    9.6320   19.9790 C   0  0  0  0  0  0  0  0  0  0  0  0
   16.8370    9.3440   19.4830 O   0  0  0  0  0  0  0  0  0  0  0  0
   18.9190    7.5740   18.8660 C   0  0  0  0  0  0  0  0  0  0  0  0
   21.8850   10.6020   21.6040 C   0  0  3  0  0  0  0  0  0  0  0  0
   21.9300   11.7650   22.5710 C   0  0  0  0  0  0  0  0  0  0  0  0
   21.7870   13.1230   22.3660 C   0  0  0  0  0  0  0  0  0  0  0  0
   21.8670   13.9720   23.4660 C   0  0  0  0  0  0  0  0  0  0  0  0
   22.1050   13.4620   24.7450 C   0  0  0  0  0  0  0  0  0  0  0  0
   22.2720   12.1020   24.9260 C   0  0  0  0  0  0  0  0  0  0  0  0
   22.1800   11.2810   23.8340 C   0  0  0  0  0  0  0  0  0  0  0  0
   22.3500    9.8470   23.6940 C   0  0  0  0  0  0  0  0  0  0  0  0
   22.2200    9.4070   22.4770 N   0  0  0  0  0  0  0  0  0  0  0  0
   22.6540    9.0460   24.7440 N   0  0  0  0  0  0  0  0  0  0  0  0
   22.5240   11.6140   26.1400 F   0  0  0  0  0  0  0  0  0  0  0  0
   22.9790   10.8020   20.5380 C   0  0  0  0  0  0  0  0  0  0  0  0
   22.7180   11.2630   19.2470 C   0  0  0  0  0  0  0  0  0  0  0  0
   23.7590   11.4900   18.3490 C   0  0  0  0  0  0  0  0  0  0  0  0
   25.0820   11.2860   18.7290 C   0  0  0  0  0  0  0  0  0  0  0  0
   25.3660   10.8450   20.0080 C   0  0  0  0  0  0  0  0  0  0  0  0
   24.3220   10.6030   20.8940 C   0  0  0  0  0  0  0  0  0  0  0  0
   17.1910   12.5850   20.8410 H   0  0  0  0  0  0  0  0  0  0  0  0
   16.0700   11.2100   20.7550 H   0  0  0  0  0  0  0  0  0  0  0  0
   16.9110   11.5600   22.2790 H   0  0  0  0  0  0  0  0  0  0  0  0
   19.3970   11.9260   21.9400 H   0  0  0  0  0  0  0  0  0  0  0  0
   21.1800    8.5110   20.0590 H   0  0  0  0  0  0  0  0  0  0  0  0
   18.1870    6.9020   19.3280 H   0  0  0  0  0  0  0  0  0  0  0  0
   19.8470    7.0080   18.7320 H   0  0  0  0  0  0  0  0  0  0  0  0
   18.5550    7.8520   17.8710 H   0  0  0  0  0  0  0  0  0  0  0  0
   21.6120   13.5290   21.3730 H   0  0  0  0  0  0  0  0  0  0  0  0
   21.7500   15.0440   23.3290 H   0  0  0  0  0  0  0  0  0  0  0  0
   22.1720   14.1310   25.5980 H   0  0  0  0  0  0  0  0  0  0  0  0
   22.7850    8.0550   24.5850 H   0  0  0  0  0  0  0  0  0  0  0  0
   22.7490    9.4020   25.6880 H   0  0  0  0  0  0  0  0  0  0  0  0
   21.7010   11.4640   18.9170 H   0  0  0  0  0  0  0  0  0  0  0  0
   23.5370   11.8420   17.3440 H   0  0  0  0  0  0  0  0  0  0  0  0
   25.8810   11.4760   18.0170 H   0  0  0  0  0  0  0  0  0  0  0  0
   24.5660   10.2540   21.8970 H   0  0  0  0  0  0  0  0  0  0  0  0
   26.7040   10.6210   20.4510 C   0  0  0  0  0  0  0  0  0  0  0  0
   27.7880   10.3920   20.9130 C   0  0  0  0  0  0  0  0  0  0  0  0
   29.3600    8.7430   22.0230 C   0  0  0  0  0  0  0  0  0  0  0  0
   30.3740    8.3760   21.9110 H   0  0  0  0  0  0  0  0  0  0  0  0
   28.6010    7.9750   21.9270 H   0  0  0  0  0  0  0  0  0  0  0  0
   29.0560   10.1270   21.5190 C   0  0  0  0  0  0  0  0  0  0  0  0
   29.8910   10.6820   21.1000 H   0  0  0  0  0  0  0  0  0  0  0  0
   29.1170    9.8430   22.9940 C   0  0  0  0  0  0  0  0  0  0  0  0
   28.1940    9.8240   23.5630 H   0  0  0  0  0  0  0  0  0  0  0  0
   29.9650   10.2300   23.5480 H   0  0  0  0  0  0  0  0  0  0  0  0
  1  2  1  0  0  0  0
  1 27  1  0  0  0  0
  1 28  1  0  0  0  0
  1 29  1  0  0  0  0
  2  3  1  0  0  0  0
  2  7  1  0  0  0  0
  3  4  2  0  0  0  0
  3 30  1  0  0  0  0
  4  5  1  0  0  0  0
  4 10  1  0  0  0  0
  5  6  2  0  0  0  0
  5 31  1  0  0  0  0
  6  7  1  0  0  0  0
  6  9  1  0  0  0  0
  7  8  2  0  0  0  0
  9 32  1  0  0  0  0
  9 33  1  0  0  0  0
  9 34  1  0  0  0  0
 10 11  1  0  0  0  0
 10 18  1  0  0  0  0
 10 21  1  0  0  0  0
 11 12  1  0  0  0  0
 11 16  2  0  0  0  0
 12 13  2  0  0  0  0
 12 35  1  0  0  0  0
 13 14  1  0  0  0  0
 13 36  1  0  0  0  0
 14 15  2  0  0  0  0
 14 37  1  0  0  0  0
 15 16  1  0  0  0  0
 15 20  1  0  0  0  0
 16 17  1  0  0  0  0
 17 18  2  0  0  0  0
 17 19  1  0  0  0  0
 19 38  1  0  0  0  0
 19 39  1  0  0  0  0
 21 22  1  0  0  0  0
 21 26  2  0  0  0  0
 22 23  2  0  0  0  0
 22 40  1  0  0  0  0
 23 24  1  0  0  0  0
 23 41  1  0  0  0  0
 24 25  2  0  0  0  0
 24 42  1  0  0  0  0
 25 26  1  0  0  0  0
 25 44  1  0  0  0  0
 26 43  1  0  0  0  0
 44 45  3  0  0  0  0
 45 49  1  0  0  0  0
 46 47  1  0  0  0  0
 46 48  1  0  0  0  0
 46 49  1  0  0  0  0
 46 51  1  0  0  0  0
 49 50  1  0  0  0  0
 49 51  1  0  0  0  0
 51 52  1  0  0  0  0
 51 53  1  0  0  0  0
M  END
>  <PARENT_CMPD_ID>
22924815_(R)-19

>  <STANDARD_TYPE>
IC50

>  <RELATION>
=

>  <STANDARD_VALUE>
6.0799999

>  <STANDARD_UNITS>
nM

>  <COMPOUND_KEY>
(R)-19

>  <PUBMED_ID>
22924815

>  <JOURNAL>
J.Med.Chem.

>  <YEAR>
2012

>  <VOLUME>
55

>  <FIRST_PAGE>
9346

>  <Company>
AstraZeneca

>  <idx>
351

>  <Model>
Valid

>  <target>
8.2160969

>  <des_pred_mlr>
6.96627

>  <RF_Canvas>
7.2774138

>  <DNN_Canvas>
7.183517

>  <pred_CoMFA>
8.0524998

>  <pred_COMSIA>
7.7178001

>  <pred_abm5>
7.3503251

>  <pred_ff8>
6.4576058

>  <pred_gau6>
7.6450472

>  <CID>
BACE_351

>  <active>
1

>  <des_class_bayes>
1

>  <maacs_class_bayes>
1

>  <radial_class_bayes>
1

>  <dend_class_bayes>
1

>  <molprint_class_bayes>
1

>  <RF_canvas>
1

>  <DNN_canvas>
1

$$$$
CHEMBL1914472
  MOE2015           3D

 98101  0  0  1  0  0  0  0  0999 V2000
   25.5440   20.2660   25.3840 C   0  0  0  0  0  0  0  0  0  0  0  0
   25.3300   21.3190   25.4890 H   0  0  0  0  0  0  0  0  0  0  0  0
   25.0640   12.0980   18.3880 C   0  0  0  0  0  0  0  0  0  0  0  0
   25.4760   12.6410   17.5510 H   0  0  0  0  0  0  0  0  0  0  0  0
   24.8550   19.2500   26.2860 C   0  0  0  0  0  0  0  0  0  0  0  0
   24.1510   19.5800   27.0350 H   0  0  0  0  0  0  0  0  0  0  0  0
   26.5380   19.7860   24.3330 C   0  0  0  0  0  0  0  0  0  0  0  0
   27.0290   20.5070   23.6960 H   0  0  0  0  0  0  0  0  0  0  0  0
   23.7700   12.5730   19.0460 C   0  0  0  0  0  0  0  0  0  0  0  0
   23.1420   13.6670   18.5860 F   0  0  0  0  0  0  0  0  0  0  0  0
   25.7760   10.8510   18.9170 C   0  0  0  0  0  0  0  0  0  0  0  0
   26.9120   10.4310   18.3380 F   0  0  0  0  0  0  0  0  0  0  0  0
   17.0770   13.1550   25.3900 C   0  0  0  0  0  0  0  0  0  0  0  0
   16.7080   14.1620   25.2630 H   0  0  0  0  0  0  0  0  0  0  0  0
   25.1630   17.7660   26.1270 C   0  0  0  0  0  0  0  0  0  0  0  0
   24.6780   17.0450   26.7690 H   0  0  0  0  0  0  0  0  0  0  0  0
   26.8480   18.3030   24.1690 C   0  0  0  0  0  0  0  0  0  0  0  0
   27.5550   17.9720   23.4220 H   0  0  0  0  0  0  0  0  0  0  0  0
   23.1920   11.7950   20.2340 C   0  0  0  0  0  0  0  0  0  0  0  0
   22.2780   12.1300   20.7020 H   0  0  0  0  0  0  0  0  0  0  0  0
   25.1970   10.0830   20.1030 C   0  0  0  0  0  0  0  0  0  0  0  0
   25.7070    9.2080   20.4780 H   0  0  0  0  0  0  0  0  0  0  0  0
   18.3620   12.9170   26.1880 C   0  0  0  0  0  0  0  0  0  0  0  0
   18.9010   13.7470   26.6200 H   0  0  0  0  0  0  0  0  0  0  0  0
   16.3070   11.9840   24.7690 C   0  0  0  0  0  0  0  0  0  0  0  0
   15.4020   12.1680   24.2090 H   0  0  0  0  0  0  0  0  0  0  0  0
   18.0990   10.3190   25.7430 C   0  0  0  0  0  0  0  0  0  0  0  0
   18.4660    9.3120   25.8740 H   0  0  0  0  0  0  0  0  0  0  0  0
   26.1510   17.2930   25.0690 C   0  0  0  0  0  0  0  0  0  0  0  0
   23.9030   10.5460   20.7600 C   0  0  0  0  0  0  0  0  0  0  0  0
   18.8690   11.4880   26.3630 C   0  0  0  0  0  0  0  0  0  0  0  0
   16.8220   10.5540   24.9440 C   0  0  0  0  0  0  0  0  0  0  0  0
   27.7350   13.0500   23.1850 C   0  0  0  0  0  0  0  0  0  0  0  0
   30.0440   14.9540   22.5980 C   0  0  0  0  0  0  0  0  0  0  0  0
   24.0040   12.9240   23.7880 C   0  0  0  0  0  0  0  0  0  0  0  0
   27.4330   13.9820   20.9840 C   0  0  0  0  0  0  0  0  0  0  0  0
   27.8040   15.0070   20.9950 H   0  0  0  0  0  0  0  0  0  0  0  0
   27.3830   13.6250   19.9550 H   0  0  0  0  0  0  0  0  0  0  0  0
   26.0390   13.9260   21.6230 C   0  0  0  0  0  0  0  0  0  0  0  0
   25.4140   13.1780   21.1360 H   0  0  0  0  0  0  0  0  0  0  0  0
   25.5470   14.8970   21.5760 H   0  0  0  0  0  0  0  0  0  0  0  0
   28.3710   13.0780   21.8060 C   0  0  3  0  0  0  0  0  0  0  0  0
   31.5280   15.3240   22.6510 C   0  0  0  0  0  0  0  0  0  0  0  0
   31.7980   15.8720   21.7480 H   0  0  0  0  0  0  0  0  0  0  0  0
   32.1270   14.4160   22.7180 H   0  0  0  0  0  0  0  0  0  0  0  0
   31.7160   15.9480   23.5240 H   0  0  0  0  0  0  0  0  0  0  0  0
   28.5520    9.1870   21.9110 C   0  0  0  0  0  0  0  0  0  0  0  0
   28.8720    8.4950   22.6900 H   0  0  0  0  0  0  0  0  0  0  0  0
   29.0790    8.9600   20.9840 H   0  0  0  0  0  0  0  0  0  0  0  0
   27.4780    9.0850   21.7530 H   0  0  0  0  0  0  0  0  0  0  0  0
   29.4100   11.5050   20.1150 C   0  0  0  0  0  0  0  0  0  0  0  0
   29.1390   12.2230   19.3410 H   0  0  0  0  0  0  0  0  0  0  0  0
   29.3530   10.4950   19.7090 H   0  0  0  0  0  0  0  0  0  0  0  0
   30.4270   11.7030   20.4540 H   0  0  0  0  0  0  0  0  0  0  0  0
   16.1710    9.2330   22.9690 C   0  0  0  0  0  0  0  0  0  0  0  0
   15.5970    8.3440   22.7090 H   0  0  0  0  0  0  0  0  0  0  0  0
   17.2060    9.1030   22.6520 H   0  0  0  0  0  0  0  0  0  0  0  0
   15.7440   10.1010   22.4670 H   0  0  0  0  0  0  0  0  0  0  0  0
   26.4490   15.8140   24.9270 C   0  0  0  0  0  0  0  0  0  0  0  0
   26.8900   15.4390   25.8500 H   0  0  0  0  0  0  0  0  0  0  0  0
   27.1450   15.6580   24.1020 H   0  0  0  0  0  0  0  0  0  0  0  0
   23.3370    9.7730   21.9500 C   0  0  0  0  0  0  0  0  0  0  0  0
   24.0900    9.0630   22.2930 H   0  0  0  0  0  0  0  0  0  0  0  0
   22.4490    9.2320   21.6220 H   0  0  0  0  0  0  0  0  0  0  0  0
   20.1520   11.2190   27.1510 C   0  0  0  0  0  0  0  0  0  0  0  0
   19.8920   10.7580   28.1040 H   0  0  0  0  0  0  0  0  0  0  0  0
   20.6600   12.1660   27.3330 H   0  0  0  0  0  0  0  0  0  0  0  0
   28.8690   10.6140   22.3390 C   0  0  0  0  0  0  0  0  0  0  0  0
   29.9430   10.7010   22.5010 H   0  0  0  0  0  0  0  0  0  0  0  0
   28.3430   10.8260   23.2700 H   0  0  0  0  0  0  0  0  0  0  0  0
   25.1510   15.0780   24.6460 C   0  0  0  0  0  0  0  0  0  0  0  0
   24.6020   15.6300   23.8830 H   0  0  0  0  0  0  0  0  0  0  0  0
   24.5670   15.0500   25.5660 H   0  0  0  0  0  0  0  0  0  0  0  0
   21.4960   10.9430   25.1360 C   0  0  0  0  0  0  0  0  0  0  0  0
   20.6140   11.2220   24.5600 H   0  0  0  0  0  0  0  0  0  0  0  0
   22.0850   11.8340   25.3530 H   0  0  0  0  0  0  0  0  0  0  0  0
   25.3450   13.6460   24.1560 C   0  0  3  0  0  0  0  0  0  0  0  0
   25.7640   13.1060   25.0050 H   0  0  0  0  0  0  0  0  0  0  0  0
   28.4460   11.6360   21.2920 C   0  0  3  0  0  0  0  0  0  0  0  0
   27.4210   11.4170   20.9920 H   0  0  0  0  0  0  0  0  0  0  0  0
   22.9510   10.6790   23.1230 C   0  0  3  0  0  0  0  0  0  0  0  0
   22.1400   11.3150   22.7680 H   0  0  0  0  0  0  0  0  0  0  0  0
   22.3370    9.9650   24.3300 C   0  0  3  0  0  0  0  0  0  0  0  0
   23.1530    9.5780   24.9400 H   0  0  0  0  0  0  0  0  0  0  0  0
   26.3360   13.5410   23.0350 N   0  0  0  0  0  0  0  0  0  0  0  0
   29.7260   13.7100   22.0440 N   0  0  0  0  0  0  0  0  0  0  0  0
   30.5290   13.1560   21.7750 H   0  0  0  0  0  0  0  0  0  0  0  0
   24.1020   11.5620   23.5080 N   0  0  0  0  0  0  0  0  0  0  0  0
   25.0290   11.1480   23.5480 H   0  0  0  0  0  0  0  0  0  0  0  0
   21.0740   10.3090   26.4090 N   0  3  0  0  0  0  0  0  0  0  0  0
   20.5980    9.4410   26.2090 H   0  0  0  0  0  0  0  0  0  0  0  0
   21.8890   10.1230   26.9760 H   0  0  0  0  0  0  0  0  0  0  0  0
   28.3970   12.5840   24.3550 O   0  0  0  0  0  0  0  0  0  0  0  0
   29.0700   15.8410   23.1320 O   0  0  0  0  0  0  0  0  0  0  0  0
   22.9140   13.4950   23.8260 O   0  0  0  0  0  0  0  0  0  0  0  0
   21.5090    8.8770   23.9180 O   0  0  0  0  0  0  0  0  0  0  0  0
   20.7990    9.2390   23.3830 H   0  0  0  0  0  0  0  0  0  0  0  0
   16.1270    9.4320   24.3850 O   0  0  0  0  0  0  0  0  0  0  0  0
  1  2  1  0  0  0  0
  1  5  2  0  0  0  0
  1  7  1  0  0  0  0
  3  4  1  0  0  0  0
  3  9  2  0  0  0  0
  3 11  1  0  0  0  0
  5  6  1  0  0  0  0
  5 15  1  0  0  0  0
  7  8  1  0  0  0  0
  7 17  2  0  0  0  0
  9 10  1  0  0  0  0
  9 19  1  0  0  0  0
 11 12  1  0  0  0  0
 11 21  2  0  0  0  0
 13 14  1  0  0  0  0
 13 23  2  0  0  0  0
 13 25  1  0  0  0  0
 15 16  1  0  0  0  0
 15 29  2  0  0  0  0
 17 18  1  0  0  0  0
 17 29  1  0  0  0  0
 19 20  1  0  0  0  0
 19 30  2  0  0  0  0
 21 22  1  0  0  0  0
 21 30  1  0  0  0  0
 23 24  1  0  0  0  0
 23 31  1  0  0  0  0
 25 26  1  0  0  0  0
 25 32  2  0  0  0  0
 27 28  1  0  0  0  0
 27 31  2  0  0  0  0
 27 32  1  0  0  0  0
 29 59  1  0  0  0  0
 30 62  1  0  0  0  0
 31 65  1  0  0  0  0
 32 98  1  0  0  0  0
 33 42  1  0  0  0  0
 33 85  1  0  0  0  0
 33 93  2  0  0  0  0
 34 43  1  0  0  0  0
 34 86  1  0  0  0  0
 34 94  2  0  0  0  0
 35 77  1  0  0  0  0
 35 88  1  0  0  0  0
 35 95  2  0  0  0  0
 36 37  1  0  0  0  0
 36 38  1  0  0  0  0
 36 39  1  0  0  0  0
 36 42  1  0  0  0  0
 39 40  1  0  0  0  0
 39 41  1  0  0  0  0
 39 85  1  0  0  0  0
 42 79  1  0  0  0  0
 42 86  1  0  0  0  0
 43 44  1  0  0  0  0
 43 45  1  0  0  0  0
 43 46  1  0  0  0  0
 47 48  1  0  0  0  0
 47 49  1  0  0  0  0
 47 50  1  0  0  0  0
 47 68  1  0  0  0  0
 51 52  1  0  0  0  0
 51 53  1  0  0  0  0
 51 54  1  0  0  0  0
 51 79  1  0  0  0  0
 55 56  1  0  0  0  0
 55 57  1  0  0  0  0
 55 58  1  0  0  0  0
 55 98  1  0  0  0  0
 59 60  1  0  0  0  0
 59 61  1  0  0  0  0
 59 71  1  0  0  0  0
 62 63  1  0  0  0  0
 62 64  1  0  0  0  0
 62 81  1  0  0  0  0
 65 66  1  0  0  0  0
 65 67  1  0  0  0  0
 65 90  1  0  0  0  0
 68 69  1  0  0  0  0
 68 70  1  0  0  0  0
 68 79  1  0  0  0  0
 71 72  1  0  0  0  0
 71 73  1  0  0  0  0
 71 77  1  0  0  0  0
 74 75  1  0  0  0  0
 74 76  1  0  0  0  0
 74 83  1  0  0  0  0
 74 90  1  0  0  0  0
 77 78  1  0  0  0  0
 77 85  1  0  0  0  0
 79 80  1  0  0  0  0
 81 82  1  0  0  0  0
 81 83  1  0  0  0  0
 81 88  1  0  0  0  0
 83 84  1  0  0  0  0
 83 96  1  0  0  0  0
 86 87  1  0  0  0  0
 88 89  1  0  0  0  0
 90 91  1  0  0  0  0
 90 92  1  0  0  0  0
 96 97  1  0  0  0  0
M  CHG  1  90   1
M  END
>  <PARENT_CMPD_ID>
CHEMBL1914472

>  <STANDARD_TYPE>
IC50

>  <RELATION>
=

>  <STANDARD_VALUE>
6.0999999

>  <STANDARD_UNITS>
nM

>  <COMPOUND_KEY>
1a

>  <PUBMED_ID>
21782431

>  <JOURNAL>
Bioorg.Med.Chem.Lett.

>  <YEAR>
2011

>  <VOLUME>
21

>  <FIRST_PAGE>
6916

>  <Company>
BMS

>  <idx>
352

>  <Model>
Valid

>  <target>
8.2146702

>  <des_pred_mlr>
7.61764

>  <RF_Canvas>
7.9083824

>  <DNN_Canvas>
7.9124479

>  <pred_CoMFA>
8.7490997

>  <pred_COMSIA>
8.9645004

>  <pred_abm5>
8.741148

>  <pred_ff8>
7.9326239

>  <pred_gau6>
8.8555517

>  <CID>
BACE_352

>  <active>
1

>  <des_class_bayes>
1

>  <maacs_class_bayes>
1

>  <radial_class_bayes>
0

>  <dend_class_bayes>
1

>  <molprint_class_bayes>
1

>  <RF_canvas>
1

>  <DNN_canvas>
1

$$$$
22468684_24
  MOE2015           3D

 84 88  0  0  1  0  0  0  0  0999 V2000
   20.7490   13.9120   29.6340 C   0  0  0  0  0  0  0  0  0  0  0  0
   20.1150   13.0340   30.7080 C   0  0  0  0  0  0  0  0  0  0  0  0
   19.1050   12.5620   29.6650 C   0  0  0  0  0  0  0  0  0  0  0  0
   20.0820   13.0240   28.5580 C   0  0  0  0  0  0  0  0  0  0  0  0
   21.0130   11.9780   27.9730 C   0  0  0  0  0  0  0  0  0  0  0  0
   19.4920   13.7860   27.4920 O   0  0  0  0  0  0  0  0  0  0  0  0
   18.8590   13.0770   26.5070 C   0  0  0  0  0  0  0  0  0  0  0  0
   17.9690   13.7920   25.8030 N   0  0  0  0  0  0  0  0  0  0  0  0
   17.3310   13.1540   24.8080 C   0  0  0  0  0  0  0  0  0  0  0  0
   17.5160   11.8160   24.4940 C   0  0  0  0  0  0  0  0  0  0  0  0
   16.7230   11.1700   23.3980 C   0  0  0  0  0  0  0  0  0  0  0  0
   15.3900   10.5180   23.8220 C   0  0  0  0  0  0  0  0  0  0  0  0
   14.4870   11.4950   24.5750 C   0  0  0  0  0  0  0  0  0  0  0  0
   15.6290    9.2840   24.6930 C   0  0  0  0  0  0  0  0  0  0  0  0
   14.6580   10.0760   22.5510 C   0  0  0  0  0  0  0  0  0  0  0  0
   18.4490   11.1100   25.2440 C   0  0  0  0  0  0  0  0  0  0  0  0
   19.1660   11.7480   26.2570 C   0  0  0  0  0  0  0  0  0  0  0  0
   20.2150   11.0390   27.0620 C   0  0  3  0  0  0  0  0  0  0  0  0
   21.1930   10.2360   26.2370 N   0  3  0  0  0  0  0  0  0  0  0  0
   21.9220   10.9910   25.1600 C   0  0  0  0  0  0  0  0  0  0  0  0
   22.3540   10.0080   24.0800 C   0  0  3  0  0  0  0  0  0  0  0  0
   21.2090    9.2410   23.6860 O   0  0  0  0  0  0  0  0  0  0  0  0
   22.9820   10.7120   22.8620 C   0  0  3  0  0  0  0  0  0  0  0  0
   24.0040   11.6700   23.2670 N   0  0  0  0  0  0  0  0  0  0  0  0
   23.7580   13.0250   23.3390 C   0  0  0  0  0  0  0  0  0  0  0  0
   22.6660   13.5260   23.0940 O   0  0  0  0  0  0  0  0  0  0  0  0
   24.9320   13.8400   23.8540 C   0  0  0  0  0  0  0  0  0  0  0  0
   26.1770   13.3100   23.4320 O   0  0  0  0  0  0  0  0  0  0  0  0
   26.5900   13.8480   22.1850 C   0  0  0  0  0  0  0  0  0  0  0  0
   23.5180    9.6520   21.8820 C   0  0  0  0  0  0  0  0  0  0  0  0
   24.3230   10.2440   20.7660 C   0  0  0  0  0  0  0  0  0  0  0  0
   25.7130   10.3000   20.8950 C   0  0  0  0  0  0  0  0  0  0  0  0
   23.7130   10.7900   19.6460 C   0  0  0  0  0  0  0  0  0  0  0  0
   24.4900   11.3820   18.6680 C   0  0  0  0  0  0  0  0  0  0  0  0
   25.8690   11.4360   18.8200 C   0  0  0  0  0  0  0  0  0  0  0  0
   26.5130   10.9020   19.9300 C   0  0  0  0  0  0  0  0  0  0  0  0
   27.9630   11.0300   20.1060 C   0  0  0  0  0  0  0  0  0  0  0  0
   28.6880   12.0390   19.6700 N   0  0  0  0  0  0  0  0  0  0  0  0
   30.0000   11.8850   20.0530 C   0  0  0  0  0  0  0  0  0  0  0  0
   30.2810   10.7520   20.7770 C   0  0  0  0  0  0  0  0  0  0  0  0
   28.8600    9.8380   20.9740 S   0  0  0  0  0  0  0  0  0  0  0  0
   21.8430   13.9340   29.6400 H   0  0  0  0  0  0  0  0  0  0  0  0
   20.3860   14.9470   29.6440 H   0  0  0  0  0  0  0  0  0  0  0  0
   19.6950   13.5640   31.5670 H   0  0  0  0  0  0  0  0  0  0  0  0
   20.7740   12.2390   31.0730 H   0  0  0  0  0  0  0  0  0  0  0  0
   18.1610   13.1210   29.6850 H   0  0  0  0  0  0  0  0  0  0  0  0
   18.8720   11.4940   29.7010 H   0  0  0  0  0  0  0  0  0  0  0  0
   21.5180   11.3950   28.7540 H   0  0  0  0  0  0  0  0  0  0  0  0
   21.8040   12.4950   27.4150 H   0  0  0  0  0  0  0  0  0  0  0  0
   16.6240   13.7700   24.2590 H   0  0  0  0  0  0  0  0  0  0  0  0
   17.3590   10.4260   22.8980 H   0  0  0  0  0  0  0  0  0  0  0  0
   16.5300   11.9300   22.6280 H   0  0  0  0  0  0  0  0  0  0  0  0
   14.9000   11.7710   25.5510 H   0  0  0  0  0  0  0  0  0  0  0  0
   13.5010   11.0540   24.7650 H   0  0  0  0  0  0  0  0  0  0  0  0
   14.3270   12.4150   24.0010 H   0  0  0  0  0  0  0  0  0  0  0  0
   16.0640    9.5460   25.6630 H   0  0  0  0  0  0  0  0  0  0  0  0
   16.3030    8.5740   24.2020 H   0  0  0  0  0  0  0  0  0  0  0  0
   14.6900    8.7570   24.8980 H   0  0  0  0  0  0  0  0  0  0  0  0
   14.4370   10.9290   21.8990 H   0  0  0  0  0  0  0  0  0  0  0  0
   13.7050    9.5880   22.7860 H   0  0  0  0  0  0  0  0  0  0  0  0
   15.2580    9.3640   21.9740 H   0  0  0  0  0  0  0  0  0  0  0  0
   18.6080   10.0570   25.0250 H   0  0  0  0  0  0  0  0  0  0  0  0
   19.7020   10.2990   27.6880 H   0  0  0  0  0  0  0  0  0  0  0  0
   20.6840    9.4790   25.7460 H   0  0  0  0  0  0  0  0  0  0  0  0
   21.8600    9.7500   26.8510 H   0  0  0  0  0  0  0  0  0  0  0  0
   22.7710   11.4890   25.6370 H   0  0  0  0  0  0  0  0  0  0  0  0
   21.2390   11.7330   24.7400 H   0  0  0  0  0  0  0  0  0  0  0  0
   23.0730    9.3060   24.5190 H   0  0  0  0  0  0  0  0  0  0  0  0
   20.7720    9.6750   22.9280 H   0  0  0  0  0  0  0  0  0  0  0  0
   22.1940   11.2660   22.3350 H   0  0  0  0  0  0  0  0  0  0  0  0
   24.9520   11.3670   23.4890 H   0  0  0  0  0  0  0  0  0  0  0  0
   24.8170   14.8900   23.5600 H   0  0  0  0  0  0  0  0  0  0  0  0
   24.9030   13.7880   24.9480 H   0  0  0  0  0  0  0  0  0  0  0  0
   27.5520   13.4030   21.9230 H   0  0  0  0  0  0  0  0  0  0  0  0
   26.7260   14.9320   22.2610 H   0  0  0  0  0  0  0  0  0  0  0  0
   25.8620   13.6170   21.4020 H   0  0  0  0  0  0  0  0  0  0  0  0
   22.6880    9.0710   21.4590 H   0  0  0  0  0  0  0  0  0  0  0  0
   24.1380    8.9230   22.4210 H   0  0  0  0  0  0  0  0  0  0  0  0
   26.1640    9.8880   21.7970 H   0  0  0  0  0  0  0  0  0  0  0  0
   22.6320   10.7680   19.5330 H   0  0  0  0  0  0  0  0  0  0  0  0
   24.0320   11.8160   17.7850 H   0  0  0  0  0  0  0  0  0  0  0  0
   26.5710   12.0230   17.8490 F   0  0  0  0  0  0  0  0  0  0  0  0
   30.7230   12.6420   19.7750 H   0  0  0  0  0  0  0  0  0  0  0  0
   31.2310   10.4290   21.1770 H   0  0  0  0  0  0  0  0  0  0  0  0
  1  2  1  0  0  0  0
  1  4  1  0  0  0  0
  1 42  1  0  0  0  0
  1 43  1  0  0  0  0
  2  3  1  0  0  0  0
  2 44  1  0  0  0  0
  2 45  1  0  0  0  0
  3  4  1  0  0  0  0
  3 46  1  0  0  0  0
  3 47  1  0  0  0  0
  4  5  1  0  0  0  0
  4  6  1  0  0  0  0
  5 18  1  0  0  0  0
  5 48  1  0  0  0  0
  5 49  1  0  0  0  0
  6  7  1  0  0  0  0
  7  8  1  0  0  0  0
  7 17  2  0  0  0  0
  8  9  2  0  0  0  0
  9 10  1  0  0  0  0
  9 50  1  0  0  0  0
 10 11  1  0  0  0  0
 10 16  2  0  0  0  0
 11 12  1  0  0  0  0
 11 51  1  0  0  0  0
 11 52  1  0  0  0  0
 12 13  1  0  0  0  0
 12 14  1  0  0  0  0
 12 15  1  0  0  0  0
 13 53  1  0  0  0  0
 13 54  1  0  0  0  0
 13 55  1  0  0  0  0
 14 56  1  0  0  0  0
 14 57  1  0  0  0  0
 14 58  1  0  0  0  0
 15 59  1  0  0  0  0
 15 60  1  0  0  0  0
 15 61  1  0  0  0  0
 16 17  1  0  0  0  0
 16 62  1  0  0  0  0
 17 18  1  0  0  0  0
 18 19  1  0  0  0  0
 18 63  1  0  0  0  0
 19 20  1  0  0  0  0
 19 64  1  0  0  0  0
 19 65  1  0  0  0  0
 20 21  1  0  0  0  0
 20 66  1  0  0  0  0
 20 67  1  0  0  0  0
 21 22  1  0  0  0  0
 21 23  1  0  0  0  0
 21 68  1  0  0  0  0
 22 69  1  0  0  0  0
 23 24  1  0  0  0  0
 23 30  1  0  0  0  0
 23 70  1  0  0  0  0
 24 25  1  0  0  0  0
 24 71  1  0  0  0  0
 25 26  2  0  0  0  0
 25 27  1  0  0  0  0
 27 28  1  0  0  0  0
 27 72  1  0  0  0  0
 27 73  1  0  0  0  0
 28 29  1  0  0  0  0
 29 74  1  0  0  0  0
 29 75  1  0  0  0  0
 29 76  1  0  0  0  0
 30 31  1  0  0  0  0
 30 77  1  0  0  0  0
 30 78  1  0  0  0  0
 31 32  1  0  0  0  0
 31 33  2  0  0  0  0
 32 36  2  0  0  0  0
 32 79  1  0  0  0  0
 33 34  1  0  0  0  0
 33 80  1  0  0  0  0
 34 35  2  0  0  0  0
 34 81  1  0  0  0  0
 35 36  1  0  0  0  0
 35 82  1  0  0  0  0
 36 37  1  0  0  0  0
 37 38  2  0  0  0  0
 37 41  1  0  0  0  0
 38 39  1  0  0  0  0
 39 40  2  0  0  0  0
 39 83  1  0  0  0  0
 40 41  1  0  0  0  0
 40 84  1  0  0  0  0
M  CHG  1  19   1
M  END
>  <PARENT_CMPD_ID>
22468684_24

>  <STANDARD_TYPE>
IC50

>  <RELATION>
=

>  <STANDARD_VALUE>
6.0999999

>  <STANDARD_UNITS>
nM

>  <COMPOUND_KEY>
24

>  <PUBMED_ID>
22468684

>  <JOURNAL>
J.Med.Chem.

>  <YEAR>
2012

>  <VOLUME>
55

>  <FIRST_PAGE>
9025

>  <Company>
Amgen

>  <idx>
353

>  <Model>
Valid

>  <target>
8.2146702

>  <des_pred_mlr>
7.7753601

>  <RF_Canvas>
8.0516262

>  <DNN_Canvas>
8.0923796

>  <pred_CoMFA>
8.9047003

>  <pred_COMSIA>
8.5963001

>  <pred_abm5>
8.9333267

>  <pred_ff8>
8.3046017

>  <pred_gau6>
8.8637028

>  <CID>
BACE_353

>  <active>
1

>  <des_class_bayes>
1

>  <maacs_class_bayes>
1

>  <radial_class_bayes>
1

>  <dend_class_bayes>
1

>  <molprint_class_bayes>
1

>  <RF_canvas>
1

>  <DNN_canvas>
1

$$$$
22468684_41
  MOE2015           3D

 88 93  0  0  1  0  0  0  0  0999 V2000
   20.7640   13.9030   29.6160 C   0  0  0  0  0  0  0  0  0  0  0  0
   20.1290   13.0230   30.6890 C   0  0  0  0  0  0  0  0  0  0  0  0
   19.1240   12.5460   29.6450 C   0  0  0  0  0  0  0  0  0  0  0  0
   20.0980   13.0160   28.5380 C   0  0  0  0  0  0  0  0  0  0  0  0
   21.0320   11.9750   27.9440 C   0  0  0  0  0  0  0  0  0  0  0  0
   19.5020   13.7790   27.4770 O   0  0  0  0  0  0  0  0  0  0  0  0
   18.8690   13.0720   26.4920 C   0  0  0  0  0  0  0  0  0  0  0  0
   17.9730   13.7870   25.7950 N   0  0  0  0  0  0  0  0  0  0  0  0
   17.3310   13.1510   24.8020 C   0  0  0  0  0  0  0  0  0  0  0  0
   17.5160   11.8140   24.4840 C   0  0  0  0  0  0  0  0  0  0  0  0
   16.7190   11.1690   23.3920 C   0  0  0  0  0  0  0  0  0  0  0  0
   15.3880   10.5170   23.8210 C   0  0  0  0  0  0  0  0  0  0  0  0
   14.4860   11.4940   24.5750 C   0  0  0  0  0  0  0  0  0  0  0  0
   15.6300    9.2850   24.6930 C   0  0  0  0  0  0  0  0  0  0  0  0
   14.6520   10.0720   22.5530 C   0  0  0  0  0  0  0  0  0  0  0  0
   18.4550   11.1080   25.2260 C   0  0  0  0  0  0  0  0  0  0  0  0
   19.1770   11.7440   26.2360 C   0  0  0  0  0  0  0  0  0  0  0  0
   20.2340   11.0370   27.0310 C   0  0  3  0  0  0  0  0  0  0  0  0
   21.2090   10.2350   26.2000 N   0  3  0  0  0  0  0  0  0  0  0  0
   21.9330   10.9870   25.1130 C   0  0  0  0  0  0  0  0  0  0  0  0
   22.3590   10.0000   24.0310 C   0  0  3  0  0  0  0  0  0  0  0  0
   21.2100    9.2280   23.6590 O   0  0  0  0  0  0  0  0  0  0  0  0
   22.9640   10.7000   22.7960 C   0  0  3  0  0  0  0  0  0  0  0  0
   23.9680   11.6820   23.1740 N   0  0  0  0  0  0  0  0  0  0  0  0
   23.6950   13.0290   23.2120 C   0  0  0  0  0  0  0  0  0  0  0  0
   22.5840   13.5080   23.0140 O   0  0  0  0  0  0  0  0  0  0  0  0
   24.8750   13.8970   23.5910 C   0  0  3  0  0  0  0  0  0  0  0  0
   24.8060   14.2500   25.0620 C   0  0  0  0  0  0  0  0  0  0  0  0
   24.4540   13.4030   25.6630 H   0  0  0  0  0  0  0  0  0  0  0  0
   24.1470   15.0990   25.2640 H   0  0  0  0  0  0  0  0  0  0  0  0
   26.1270   13.2380   23.3840 O   0  0  0  0  0  0  0  0  0  0  0  0
   26.9650   13.5110   24.5110 C   0  0  0  0  0  0  0  0  0  0  0  0
   23.5120    9.6580   21.8000 C   0  0  0  0  0  0  0  0  0  0  0  0
   24.3400   10.2640   20.7040 C   0  0  0  0  0  0  0  0  0  0  0  0
   25.7260   10.3230   20.8600 C   0  0  0  0  0  0  0  0  0  0  0  0
   23.7620   10.8270   19.5750 C   0  0  0  0  0  0  0  0  0  0  0  0
   24.5620   11.4390   18.6200 C   0  0  0  0  0  0  0  0  0  0  0  0
   25.9410   11.5050   18.7960 C   0  0  0  0  0  0  0  0  0  0  0  0
   26.5440   10.9470   19.9220 C   0  0  0  0  0  0  0  0  0  0  0  0
   27.9930   11.0720   20.1220 C   0  0  0  0  0  0  0  0  0  0  0  0
   28.7250   12.0590   19.6500 N   0  0  0  0  0  0  0  0  0  0  0  0
   30.0370   11.8990   20.0310 C   0  0  0  0  0  0  0  0  0  0  0  0
   30.3080   10.7830   20.7850 C   0  0  0  0  0  0  0  0  0  0  0  0
   28.8770    9.8940   21.0190 S   0  0  0  0  0  0  0  0  0  0  0  0
   21.8570   13.9260   29.6220 H   0  0  0  0  0  0  0  0  0  0  0  0
   20.3990   14.9370   29.6260 H   0  0  0  0  0  0  0  0  0  0  0  0
   19.7070   13.5530   31.5470 H   0  0  0  0  0  0  0  0  0  0  0  0
   20.7910   12.2310   31.0550 H   0  0  0  0  0  0  0  0  0  0  0  0
   18.1770   13.0990   29.6650 H   0  0  0  0  0  0  0  0  0  0  0  0
   18.8970   11.4770   29.6800 H   0  0  0  0  0  0  0  0  0  0  0  0
   21.5410   11.3910   28.7210 H   0  0  0  0  0  0  0  0  0  0  0  0
   21.8180   12.4960   27.3840 H   0  0  0  0  0  0  0  0  0  0  0  0
   16.6190   13.7670   24.2590 H   0  0  0  0  0  0  0  0  0  0  0  0
   17.3520   10.4250   22.8880 H   0  0  0  0  0  0  0  0  0  0  0  0
   16.5220   11.9290   22.6220 H   0  0  0  0  0  0  0  0  0  0  0  0
   14.9020   11.7720   25.5490 H   0  0  0  0  0  0  0  0  0  0  0  0
   13.5010   11.0530   24.7680 H   0  0  0  0  0  0  0  0  0  0  0  0
   14.3240   12.4130   24.0000 H   0  0  0  0  0  0  0  0  0  0  0  0
   16.0690    9.5480   25.6610 H   0  0  0  0  0  0  0  0  0  0  0  0
   16.3030    8.5730   24.2010 H   0  0  0  0  0  0  0  0  0  0  0  0
   14.6920    8.7570   24.9020 H   0  0  0  0  0  0  0  0  0  0  0  0
   14.4290   10.9240   21.9000 H   0  0  0  0  0  0  0  0  0  0  0  0
   13.7000    9.5830   22.7910 H   0  0  0  0  0  0  0  0  0  0  0  0
   15.2510    9.3590   21.9750 H   0  0  0  0  0  0  0  0  0  0  0  0
   18.6150   10.0560   25.0030 H   0  0  0  0  0  0  0  0  0  0  0  0
   19.7260   10.2930   27.6580 H   0  0  0  0  0  0  0  0  0  0  0  0
   20.7000    9.4800   25.7070 H   0  0  0  0  0  0  0  0  0  0  0  0
   21.8820    9.7480   26.8060 H   0  0  0  0  0  0  0  0  0  0  0  0
   22.7840   11.4870   25.5830 H   0  0  0  0  0  0  0  0  0  0  0  0
   21.2450   11.7270   24.6970 H   0  0  0  0  0  0  0  0  0  0  0  0
   23.0890    9.3040   24.4620 H   0  0  0  0  0  0  0  0  0  0  0  0
   20.7850    9.6330   22.8790 H   0  0  0  0  0  0  0  0  0  0  0  0
   22.1580   11.2350   22.2760 H   0  0  0  0  0  0  0  0  0  0  0  0
   24.9290   11.4110   23.3800 H   0  0  0  0  0  0  0  0  0  0  0  0
   24.8660   14.7940   22.9600 H   0  0  0  0  0  0  0  0  0  0  0  0
   27.1080   12.5700   25.0540 H   0  0  0  0  0  0  0  0  0  0  0  0
   22.6850    9.0880   21.3570 H   0  0  0  0  0  0  0  0  0  0  0  0
   26.2470   14.5300   25.3690 C   0  0  0  0  0  0  0  0  0  0  0  0
   26.5080   15.5430   25.0380 H   0  0  0  0  0  0  0  0  0  0  0  0
   26.4980   14.4470   26.4300 H   0  0  0  0  0  0  0  0  0  0  0  0
   24.1210    8.9180   22.3350 H   0  0  0  0  0  0  0  0  0  0  0  0
   26.1610    9.8990   21.7630 H   0  0  0  0  0  0  0  0  0  0  0  0
   27.9420   13.8650   24.1690 H   0  0  0  0  0  0  0  0  0  0  0  0
   22.6840   10.8070   19.4340 H   0  0  0  0  0  0  0  0  0  0  0  0
   24.1090   11.8860   17.7390 H   0  0  0  0  0  0  0  0  0  0  0  0
   26.5470   12.0100   18.0460 H   0  0  0  0  0  0  0  0  0  0  0  0
   30.7680   12.6380   19.7280 H   0  0  0  0  0  0  0  0  0  0  0  0
   31.2570   10.4600   21.1890 H   0  0  0  0  0  0  0  0  0  0  0  0
  1  2  1  0  0  0  0
  1  4  1  0  0  0  0
  1 45  1  0  0  0  0
  1 46  1  0  0  0  0
  2  3  1  0  0  0  0
  2 47  1  0  0  0  0
  2 48  1  0  0  0  0
  3  4  1  0  0  0  0
  3 49  1  0  0  0  0
  3 50  1  0  0  0  0
  4  5  1  0  0  0  0
  4  6  1  0  0  0  0
  5 18  1  0  0  0  0
  5 51  1  0  0  0  0
  5 52  1  0  0  0  0
  6  7  1  0  0  0  0
  7  8  1  0  0  0  0
  7 17  2  0  0  0  0
  8  9  2  0  0  0  0
  9 10  1  0  0  0  0
  9 53  1  0  0  0  0
 10 11  1  0  0  0  0
 10 16  2  0  0  0  0
 11 12  1  0  0  0  0
 11 54  1  0  0  0  0
 11 55  1  0  0  0  0
 12 13  1  0  0  0  0
 12 14  1  0  0  0  0
 12 15  1  0  0  0  0
 13 56  1  0  0  0  0
 13 57  1  0  0  0  0
 13 58  1  0  0  0  0
 14 59  1  0  0  0  0
 14 60  1  0  0  0  0
 14 61  1  0  0  0  0
 15 62  1  0  0  0  0
 15 63  1  0  0  0  0
 15 64  1  0  0  0  0
 16 17  1  0  0  0  0
 16 65  1  0  0  0  0
 17 18  1  0  0  0  0
 18 19  1  0  0  0  0
 18 66  1  0  0  0  0
 19 20  1  0  0  0  0
 19 67  1  0  0  0  0
 19 68  1  0  0  0  0
 20 21  1  0  0  0  0
 20 69  1  0  0  0  0
 20 70  1  0  0  0  0
 21 22  1  0  0  0  0
 21 23  1  0  0  0  0
 21 71  1  0  0  0  0
 22 72  1  0  0  0  0
 23 24  1  0  0  0  0
 23 33  1  0  0  0  0
 23 73  1  0  0  0  0
 24 25  1  0  0  0  0
 24 74  1  0  0  0  0
 25 26  2  0  0  0  0
 25 27  1  0  0  0  0
 27 28  1  0  0  0  0
 27 31  1  0  0  0  0
 27 75  1  0  0  0  0
 28 29  1  0  0  0  0
 28 30  1  0  0  0  0
 28 78  1  0  0  0  0
 31 32  1  0  0  0  0
 32 76  1  0  0  0  0
 32 78  1  0  0  0  0
 32 83  1  0  0  0  0
 33 34  1  0  0  0  0
 33 77  1  0  0  0  0
 33 81  1  0  0  0  0
 34 35  1  0  0  0  0
 34 36  2  0  0  0  0
 35 39  2  0  0  0  0
 35 82  1  0  0  0  0
 36 37  1  0  0  0  0
 36 84  1  0  0  0  0
 37 38  2  0  0  0  0
 37 85  1  0  0  0  0
 38 39  1  0  0  0  0
 38 86  1  0  0  0  0
 39 40  1  0  0  0  0
 40 41  2  0  0  0  0
 40 44  1  0  0  0  0
 41 42  1  0  0  0  0
 42 43  2  0  0  0  0
 42 87  1  0  0  0  0
 43 44  1  0  0  0  0
 43 88  1  0  0  0  0
 78 79  1  0  0  0  0
 78 80  1  0  0  0  0
M  CHG  1  19   1
M  END
>  <PARENT_CMPD_ID>
22468684_41

>  <STANDARD_TYPE>
IC50

>  <RELATION>
=

>  <STANDARD_VALUE>
6.3000002

>  <STANDARD_UNITS>
nM

>  <COMPOUND_KEY>
41

>  <PUBMED_ID>
22468684

>  <JOURNAL>
J.Med.Chem.

>  <YEAR>
2012

>  <VOLUME>
55

>  <FIRST_PAGE>
9025

>  <Company>
Amgen

>  <idx>
354

>  <Model>
Valid

>  <target>
8.2006598

>  <des_pred_mlr>
8.1068802

>  <RF_Canvas>
8.0068064

>  <DNN_Canvas>
8.0814724

>  <pred_CoMFA>
8.6384001

>  <pred_COMSIA>
8.3785

>  <pred_abm5>
8.999917

>  <pred_ff8>
8.0177717

>  <pred_gau6>
8.8039141

>  <CID>
BACE_354

>  <active>
1

>  <des_class_bayes>
1

>  <maacs_class_bayes>
1

>  <radial_class_bayes>
1

>  <dend_class_bayes>
1

>  <molprint_class_bayes>
1

>  <RF_canvas>
1

>  <DNN_canvas>
1

$$$$
22924815_33
  MOE2015           3D

 54 58  0  0  1  0  0  0  0  0999 V2000
   21.8280   13.9730   23.4150 C   0  0  0  0  0  0  0  0  0  0  0  0
   21.6880   13.1200   22.3220 C   0  0  0  0  0  0  0  0  0  0  0  0
   21.8140   11.7590   22.5250 C   0  0  0  0  0  0  0  0  0  0  0  0
   22.1170   11.2810   23.7780 C   0  0  0  0  0  0  0  0  0  0  0  0
   22.2560   12.1030   24.8640 C   0  0  0  0  0  0  0  0  0  0  0  0
   22.1010   13.4640   24.6860 C   0  0  0  0  0  0  0  0  0  0  0  0
   22.5460   11.6140   26.0700 F   0  0  0  0  0  0  0  0  0  0  0  0
   22.3020    9.8490   23.6350 C   0  0  0  0  0  0  0  0  0  0  0  0
   22.1410    9.4070   22.4210 N   0  0  0  0  0  0  0  0  0  0  0  0
   21.7350   10.5950   21.5610 C   0  0  3  0  0  0  0  0  0  0  0  0
   22.7970   10.8120   20.4520 C   0  0  0  0  0  0  0  0  0  0  0  0
   22.4430   11.1920   19.1590 C   0  0  0  0  0  0  0  0  0  0  0  0
   23.4110   11.4170   18.1950 C   0  0  0  0  0  0  0  0  0  0  0  0
   24.7570   11.3070   18.5120 C   0  0  0  0  0  0  0  0  0  0  0  0
   25.4760   11.4830   17.7140 H   0  0  0  0  0  0  0  0  0  0  0  0
   25.1800   10.9900   19.8040 C   0  0  0  0  0  0  0  0  0  0  0  0
   24.1760   10.7260   20.7500 C   0  0  0  0  0  0  0  0  0  0  0  0
   26.6150   10.9880   20.1480 C   0  0  0  0  0  0  0  0  0  0  0  0
   27.5040   11.8940   19.5580 C   0  0  0  0  0  0  0  0  0  0  0  0
   28.8310   11.9800   19.8050 N   0  0  0  0  0  0  0  0  0  0  0  0
   29.3160   11.1270   20.7200 C   0  0  0  0  0  0  0  0  0  0  0  0
   28.5430   10.1940   21.3850 C   0  0  0  0  0  0  0  0  0  0  0  0
   27.1840   10.1200   21.0850 C   0  0  0  0  0  0  0  0  0  0  0  0
   20.2980   10.3100   21.0300 C   0  0  0  0  0  0  0  0  0  0  0  0
   19.1800   11.1180   21.2630 C   0  0  0  0  0  0  0  0  0  0  0  0
   17.9390   10.7790   20.7190 C   0  0  0  0  0  0  0  0  0  0  0  0
   17.7100    9.6960   19.9510 N   0  0  0  0  0  0  0  0  0  0  0  0
   18.7920    8.9060   19.7420 C   0  0  0  0  0  0  0  0  0  0  0  0
   20.0660    9.1660   20.2620 C   0  0  0  0  0  0  0  0  0  0  0  0
   18.6140    7.6920   18.8890 C   0  0  0  0  0  0  0  0  0  0  0  0
   17.5990    7.6430   18.4820 H   0  0  0  0  0  0  0  0  0  0  0  0
   19.4800    7.6700   17.8440 F   0  0  0  0  0  0  0  0  0  0  0  0
   18.8410    6.5400   19.5710 F   0  0  0  0  0  0  0  0  0  0  0  0
   22.6550    9.0560   24.6780 N   0  0  0  0  0  0  0  0  0  0  0  0
   21.7290   15.0480   23.2770 H   0  0  0  0  0  0  0  0  0  0  0  0
   21.4850   13.5260   21.3350 H   0  0  0  0  0  0  0  0  0  0  0  0
   22.2120   14.1350   25.5320 H   0  0  0  0  0  0  0  0  0  0  0  0
   21.4030   11.3210   18.8700 H   0  0  0  0  0  0  0  0  0  0  0  0
   23.1150   11.6860   17.1840 H   0  0  0  0  0  0  0  0  0  0  0  0
   24.4680   10.4790   21.7700 H   0  0  0  0  0  0  0  0  0  0  0  0
   27.1600   12.6340   18.8390 H   0  0  0  0  0  0  0  0  0  0  0  0
   30.3810   11.2230   20.9140 H   0  0  0  0  0  0  0  0  0  0  0  0
   26.5700    9.3770   21.5900 H   0  0  0  0  0  0  0  0  0  0  0  0
   19.2340   12.0160   21.8680 H   0  0  0  0  0  0  0  0  0  0  0  0
   17.0700   11.4060   20.9000 H   0  0  0  0  0  0  0  0  0  0  0  0
   20.8840    8.4770   20.0540 H   0  0  0  0  0  0  0  0  0  0  0  0
   22.7890    8.0660   24.5170 H   0  0  0  0  0  0  0  0  0  0  0  0
   22.7890    9.4190   25.6140 H   0  0  0  0  0  0  0  0  0  0  0  0
   29.1490    9.3570   22.3610 C   0  0  0  0  0  0  0  0  0  0  0  0
   29.7120    8.6920   23.1840 C   0  0  0  0  0  0  0  0  0  0  0  0
   30.4140    7.9010   24.1830 C   0  0  0  0  0  0  0  0  0  0  0  0
   31.0040    8.5430   24.8460 H   0  0  0  0  0  0  0  0  0  0  0  0
   31.0960    7.1880   23.7100 H   0  0  0  0  0  0  0  0  0  0  0  0
   29.7100    7.3360   24.8000 H   0  0  0  0  0  0  0  0  0  0  0  0
  1  2  1  0  0  0  0
  1  6  2  0  0  0  0
  1 35  1  0  0  0  0
  2  3  2  0  0  0  0
  2 36  1  0  0  0  0
  3  4  1  0  0  0  0
  3 10  1  0  0  0  0
  4  5  2  0  0  0  0
  4  8  1  0  0  0  0
  5  6  1  0  0  0  0
  5  7  1  0  0  0  0
  6 37  1  0  0  0  0
  8  9  2  0  0  0  0
  8 34  1  0  0  0  0
  9 10  1  0  0  0  0
 10 11  1  0  0  0  0
 10 24  1  0  0  0  0
 11 12  1  0  0  0  0
 11 17  2  0  0  0  0
 12 13  2  0  0  0  0
 12 38  1  0  0  0  0
 13 14  1  0  0  0  0
 13 39  1  0  0  0  0
 14 15  1  0  0  0  0
 14 16  2  0  0  0  0
 16 17  1  0  0  0  0
 16 18  1  0  0  0  0
 17 40  1  0  0  0  0
 18 19  1  0  0  0  0
 18 23  2  0  0  0  0
 19 20  2  0  0  0  0
 19 41  1  0  0  0  0
 20 21  1  0  0  0  0
 21 22  2  0  0  0  0
 21 42  1  0  0  0  0
 22 23  1  0  0  0  0
 22 49  1  0  0  0  0
 23 43  1  0  0  0  0
 24 25  1  0  0  0  0
 24 29  2  0  0  0  0
 25 26  2  0  0  0  0
 25 44  1  0  0  0  0
 26 27  1  0  0  0  0
 26 45  1  0  0  0  0
 27 28  2  0  0  0  0
 28 29  1  0  0  0  0
 28 30  1  0  0  0  0
 29 46  1  0  0  0  0
 30 31  1  0  0  0  0
 30 32  1  0  0  0  0
 30 33  1  0  0  0  0
 34 47  1  0  0  0  0
 34 48  1  0  0  0  0
 49 50  3  0  0  0  0
 50 51  1  0  0  0  0
 51 52  1  0  0  0  0
 51 53  1  0  0  0  0
 51 54  1  0  0  0  0
M  END
>  <PARENT_CMPD_ID>
22924815_33

>  <STANDARD_TYPE>
IC50

>  <RELATION>
=

>  <STANDARD_VALUE>
6.4899998

>  <STANDARD_UNITS>
nM

>  <COMPOUND_KEY>
33

>  <PUBMED_ID>
22924815

>  <JOURNAL>
J.Med.Chem.

>  <YEAR>
2012

>  <VOLUME>
55

>  <FIRST_PAGE>
9346

>  <Company>
AstraZeneca

>  <idx>
355

>  <Model>
Valid

>  <target>
8.1877556

>  <des_pred_mlr>
7.6421199

>  <RF_Canvas>
7.2422843

>  <DNN_Canvas>
7.3092566

>  <pred_CoMFA>
8.5184002

>  <pred_COMSIA>
7.5696001

>  <pred_abm5>
7.7101574

>  <pred_ff8>
6.8530831

>  <pred_gau6>
7.8260145

>  <CID>
BACE_355

>  <active>
1

>  <des_class_bayes>
1

>  <maacs_class_bayes>
1

>  <radial_class_bayes>
1

>  <dend_class_bayes>
1

>  <molprint_class_bayes>
1

>  <RF_canvas>
1

>  <DNN_canvas>
1

$$$$
mcl886_23
  MOE2015           3D

 74 77  0  0  1  0  0  0  0  0999 V2000
   18.6660   12.1750   29.4660 C   0  0  0  0  0  0  0  0  0  0  0  0
   19.6270   12.6580   30.5490 C   0  0  0  0  0  0  0  0  0  0  0  0
   20.2700   13.5750   29.5130 C   0  0  0  0  0  0  0  0  0  0  0  0
   19.6580   12.6960   28.3980 C   0  0  0  0  0  0  0  0  0  0  0  0
   20.6370   11.7000   27.8010 C   0  0  0  0  0  0  0  0  0  0  0  0
   19.0680   13.4660   27.3390 O   0  0  0  0  0  0  0  0  0  0  0  0
   18.4400   12.7520   26.3540 C   0  0  0  0  0  0  0  0  0  0  0  0
   17.4930   13.4370   25.6970 N   0  0  0  0  0  0  0  0  0  0  0  0
   16.8490   12.7860   24.7150 C   0  0  0  0  0  0  0  0  0  0  0  0
   17.0840   11.4640   24.3710 C   0  0  0  0  0  0  0  0  0  0  0  0
   16.2900   10.8020   23.2860 C   0  0  0  0  0  0  0  0  0  0  0  0
   14.9720   10.1310   23.7190 C   0  0  0  0  0  0  0  0  0  0  0  0
   14.0430   11.1060   24.4420 C   0  0  0  0  0  0  0  0  0  0  0  0
   15.2330    8.9250   24.6210 C   0  0  0  0  0  0  0  0  0  0  0  0
   14.2580    9.6420   22.4540 C   0  0  0  0  0  0  0  0  0  0  0  0
   18.0740   10.7880   25.0750 C   0  0  0  0  0  0  0  0  0  0  0  0
   18.7970   11.4410   26.0730 C   0  0  0  0  0  0  0  0  0  0  0  0
   19.8930   10.7650   26.8410 C   0  0  3  0  0  0  0  0  0  0  0  0
   20.9080   10.0500   25.9800 N   0  3  0  0  0  0  0  0  0  0  0  0
   21.6160   10.8770   24.9390 C   0  0  0  0  0  0  0  0  0  0  0  0
   22.1130    9.9380   23.8390 C   0  0  3  0  0  0  0  0  0  0  0  0
   21.0110    9.1270   23.4230 O   0  0  0  0  0  0  0  0  0  0  0  0
   22.7160   10.7260   22.6590 C   0  0  3  0  0  0  0  0  0  0  0  0
   23.8760   11.4940   23.0970 N   0  0  0  0  0  0  0  0  0  0  0  0
   23.7960   12.8480   23.3250 C   0  0  0  0  0  0  0  0  0  0  0  0
   25.0940   13.4760   23.7380 C   0  0  0  0  0  0  0  0  0  0  0  0
   22.7490   13.4780   23.2360 O   0  0  0  0  0  0  0  0  0  0  0  0
   23.0750    9.8190   21.4680 C   0  0  0  0  0  0  0  0  0  0  0  0
   23.7630   10.5650   20.3570 C   0  0  0  0  0  0  0  0  0  0  0  0
   25.0920   10.2970   20.0520 C   0  0  0  0  0  0  0  0  0  0  0  0
   25.7780   10.9890   19.0750 C   0  0  0  0  0  0  0  0  0  0  0  0
   26.8150   10.7630   18.8610 H   0  0  0  0  0  0  0  0  0  0  0  0
   25.1180   11.9800   18.3890 C   0  0  0  0  0  0  0  0  0  0  0  0
   25.7700   12.6650   17.4500 F   0  0  0  0  0  0  0  0  0  0  0  0
   23.7950   12.2780   18.6620 C   0  0  0  0  0  0  0  0  0  0  0  0
   23.1130   11.5670   19.6410 C   0  0  0  0  0  0  0  0  0  0  0  0
   17.7030   12.7000   29.4710 H   0  0  0  0  0  0  0  0  0  0  0  0
   18.4710   11.0990   29.4710 H   0  0  0  0  0  0  0  0  0  0  0  0
   20.2980   11.8750   30.9200 H   0  0  0  0  0  0  0  0  0  0  0  0
   19.1650   13.1590   31.4030 H   0  0  0  0  0  0  0  0  0  0  0  0
   21.3630   13.6230   29.5530 H   0  0  0  0  0  0  0  0  0  0  0  0
   19.8810   14.6000   29.5350 H   0  0  0  0  0  0  0  0  0  0  0  0
   21.1430   11.1090   28.5750 H   0  0  0  0  0  0  0  0  0  0  0  0
   21.4220   12.2600   27.2780 H   0  0  0  0  0  0  0  0  0  0  0  0
   16.0970   13.3790   24.2010 H   0  0  0  0  0  0  0  0  0  0  0  0
   16.9330   10.0660   22.7820 H   0  0  0  0  0  0  0  0  0  0  0  0
   16.0810   11.5570   22.5130 H   0  0  0  0  0  0  0  0  0  0  0  0
   14.4420   11.4120   25.4150 H   0  0  0  0  0  0  0  0  0  0  0  0
   13.0640   10.6490   24.6340 H   0  0  0  0  0  0  0  0  0  0  0  0
   13.8680   12.0090   23.8460 H   0  0  0  0  0  0  0  0  0  0  0  0
   15.6650    9.2200   25.5830 H   0  0  0  0  0  0  0  0  0  0  0  0
   15.9210    8.2150   24.1480 H   0  0  0  0  0  0  0  0  0  0  0  0
   14.3040    8.3860   24.8400 H   0  0  0  0  0  0  0  0  0  0  0  0
   14.0240   10.4730   21.7800 H   0  0  0  0  0  0  0  0  0  0  0  0
   13.3140    9.1390   22.6950 H   0  0  0  0  0  0  0  0  0  0  0  0
   14.8780    8.9280   21.8980 H   0  0  0  0  0  0  0  0  0  0  0  0
   18.2720    9.7460   24.8350 H   0  0  0  0  0  0  0  0  0  0  0  0
   19.4250    9.9690   27.4350 H   0  0  0  0  0  0  0  0  0  0  0  0
   20.4390    9.2930   25.4510 H   0  0  0  0  0  0  0  0  0  0  0  0
   21.5960    9.5680   26.5720 H   0  0  0  0  0  0  0  0  0  0  0  0
   22.4300   11.4040   25.4420 H   0  0  0  0  0  0  0  0  0  0  0  0
   20.8970   11.5920   24.5310 H   0  0  0  0  0  0  0  0  0  0  0  0
   22.8670    9.2600   24.2580 H   0  0  0  0  0  0  0  0  0  0  0  0
   20.5040    9.5950   22.7320 H   0  0  0  0  0  0  0  0  0  0  0  0
   21.9480   11.4260   22.3030 H   0  0  0  0  0  0  0  0  0  0  0  0
   24.7680   11.0210   23.2170 H   0  0  0  0  0  0  0  0  0  0  0  0
   25.9370   12.9950   23.2350 H   0  0  0  0  0  0  0  0  0  0  0  0
   25.2130   13.3780   24.8200 H   0  0  0  0  0  0  0  0  0  0  0  0
   25.0880   14.5360   23.4670 H   0  0  0  0  0  0  0  0  0  0  0  0
   22.1720    9.3480   21.0590 H   0  0  0  0  0  0  0  0  0  0  0  0
   23.7100    8.9950   21.8190 H   0  0  0  0  0  0  0  0  0  0  0  0
   25.7460    9.3590   20.7400 F   0  0  0  0  0  0  0  0  0  0  0  0
   23.2960   13.0670   18.1060 H   0  0  0  0  0  0  0  0  0  0  0  0
   22.0740   11.8140   19.8460 H   0  0  0  0  0  0  0  0  0  0  0  0
  1  2  1  0  0  0  0
  1  4  1  0  0  0  0
  1 37  1  0  0  0  0
  1 38  1  0  0  0  0
  2  3  1  0  0  0  0
  2 39  1  0  0  0  0
  2 40  1  0  0  0  0
  3  4  1  0  0  0  0
  3 41  1  0  0  0  0
  3 42  1  0  0  0  0
  4  5  1  0  0  0  0
  4  6  1  0  0  0  0
  5 18  1  0  0  0  0
  5 43  1  0  0  0  0
  5 44  1  0  0  0  0
  6  7  1  0  0  0  0
  7  8  1  0  0  0  0
  7 17  2  0  0  0  0
  8  9  2  0  0  0  0
  9 10  1  0  0  0  0
  9 45  1  0  0  0  0
 10 11  1  0  0  0  0
 10 16  2  0  0  0  0
 11 12  1  0  0  0  0
 11 46  1  0  0  0  0
 11 47  1  0  0  0  0
 12 13  1  0  0  0  0
 12 14  1  0  0  0  0
 12 15  1  0  0  0  0
 13 48  1  0  0  0  0
 13 49  1  0  0  0  0
 13 50  1  0  0  0  0
 14 51  1  0  0  0  0
 14 52  1  0  0  0  0
 14 53  1  0  0  0  0
 15 54  1  0  0  0  0
 15 55  1  0  0  0  0
 15 56  1  0  0  0  0
 16 17  1  0  0  0  0
 16 57  1  0  0  0  0
 17 18  1  0  0  0  0
 18 19  1  0  0  0  0
 18 58  1  0  0  0  0
 19 20  1  0  0  0  0
 19 59  1  0  0  0  0
 19 60  1  0  0  0  0
 20 21  1  0  0  0  0
 20 61  1  0  0  0  0
 20 62  1  0  0  0  0
 21 22  1  0  0  0  0
 21 23  1  0  0  0  0
 21 63  1  0  0  0  0
 22 64  1  0  0  0  0
 23 24  1  0  0  0  0
 23 28  1  0  0  0  0
 23 65  1  0  0  0  0
 24 25  1  0  0  0  0
 24 66  1  0  0  0  0
 25 26  1  0  0  0  0
 25 27  2  0  0  0  0
 26 67  1  0  0  0  0
 26 68  1  0  0  0  0
 26 69  1  0  0  0  0
 28 29  1  0  0  0  0
 28 70  1  0  0  0  0
 28 71  1  0  0  0  0
 29 30  1  0  0  0  0
 29 36  2  0  0  0  0
 30 31  2  0  0  0  0
 30 72  1  0  0  0  0
 31 32  1  0  0  0  0
 31 33  1  0  0  0  0
 33 34  1  0  0  0  0
 33 35  2  0  0  0  0
 35 36  1  0  0  0  0
 35 73  1  0  0  0  0
 36 74  1  0  0  0  0
M  CHG  1  19   1
M  END
>  <PARENT_CMPD_ID>
mcl886_23

>  <STANDARD_TYPE>
IC50

>  <RELATION>
=

>  <STANDARD_VALUE>
6.5

>  <STANDARD_UNITS>
nM

>  <COMPOUND_KEY>
23

>  <PUBMED_ID>
24900403

>  <JOURNAL>
ACS Med. Chem. Lett.

>  <YEAR>
2012

>  <VOLUME>
3

>  <FIRST_PAGE>
886

>  <Company>
Amgen

>  <idx>
356

>  <Model>
Valid

>  <target>
8.1870871

>  <des_pred_mlr>
7.1349001

>  <RF_Canvas>
7.9488468

>  <DNN_Canvas>
7.8871927

>  <pred_CoMFA>
7.8081999

>  <pred_COMSIA>
7.4268999

>  <pred_abm5>
8.0075254

>  <pred_ff8>
7.4738097

>  <pred_gau6>
7.8197956

>  <CID>
BACE_356

>  <active>
1

>  <des_class_bayes>
0

>  <maacs_class_bayes>
1

>  <radial_class_bayes>
1

>  <dend_class_bayes>
1

>  <molprint_class_bayes>
1

>  <RF_canvas>
1

>  <DNN_canvas>
1

$$$$
CHEMBL1916001
  MOE2015           3D

 89 92  0  0  1  0  0  0  0  0999 V2000
   25.1250   20.4600   25.3770 C   0  0  0  0  0  0  0  0  0  0  0  0
   25.0110   21.5340   25.3990 H   0  0  0  0  0  0  0  0  0  0  0  0
   24.5530   19.6790   26.3820 C   0  0  0  0  0  0  0  0  0  0  0  0
   23.9970   20.1390   27.1860 H   0  0  0  0  0  0  0  0  0  0  0  0
   25.8500   19.8520   24.3350 C   0  0  0  0  0  0  0  0  0  0  0  0
   26.2880   20.4650   23.5610 H   0  0  0  0  0  0  0  0  0  0  0  0
   24.7120   18.2920   26.3300 C   0  0  0  0  0  0  0  0  0  0  0  0
   24.2700   17.6760   27.0990 H   0  0  0  0  0  0  0  0  0  0  0  0
   26.0110   18.4630   24.2890 C   0  0  0  0  0  0  0  0  0  0  0  0
   26.5700   17.9990   23.4900 H   0  0  0  0  0  0  0  0  0  0  0  0
   23.1870   11.8460   20.3250 C   0  0  0  0  0  0  0  0  0  0  0  0
   22.2260   12.1450   20.7180 H   0  0  0  0  0  0  0  0  0  0  0  0
   25.1040   10.4330   20.3920 C   0  0  0  0  0  0  0  0  0  0  0  0
   25.6580    9.6180   20.8340 H   0  0  0  0  0  0  0  0  0  0  0  0
   24.9360   12.1640   18.6930 C   0  0  0  0  0  0  0  0  0  0  0  0
   25.3360   12.6830   17.8350 H   0  0  0  0  0  0  0  0  0  0  0  0
   25.4350   17.6910   25.2960 C   0  0  0  0  0  0  0  0  0  0  0  0
   23.8700   10.7920   20.9260 C   0  0  0  0  0  0  0  0  0  0  0  0
   23.7120   12.5220   19.2320 C   0  0  0  0  0  0  0  0  0  0  0  0
   25.6390   11.1160   19.2860 C   0  0  0  0  0  0  0  0  0  0  0  0
   27.1750   13.4880   23.6660 C   0  0  0  0  0  0  0  0  0  0  0  0
   29.7210   15.1070   22.9300 C   0  0  0  0  0  0  0  0  0  0  0  0
   23.6640   13.1990   23.8080 C   0  0  0  0  0  0  0  0  0  0  0  0
   27.2350   14.1150   21.3400 C   0  0  0  0  0  0  0  0  0  0  0  0
   27.5580   15.1550   21.2900 H   0  0  0  0  0  0  0  0  0  0  0  0
   27.3370   13.6550   20.3570 H   0  0  0  0  0  0  0  0  0  0  0  0
   20.4890   11.9020   25.1990 C   0  0  0  0  0  0  0  0  0  0  0  0
   20.8500   12.9300   25.1550 H   0  0  0  0  0  0  0  0  0  0  0  0
   20.0890   11.6150   24.2260 H   0  0  0  0  0  0  0  0  0  0  0  0
   25.8080   13.9890   21.8800 C   0  0  0  0  0  0  0  0  0  0  0  0
   25.3190   13.1130   21.4530 H   0  0  0  0  0  0  0  0  0  0  0  0
   25.2320   14.8820   21.6350 H   0  0  0  0  0  0  0  0  0  0  0  0
   20.1540   11.0320   27.3770 C   0  0  0  0  0  0  0  0  0  0  0  0
   19.4610   10.5130   28.0390 H   0  0  0  0  0  0  0  0  0  0  0  0
   20.7690   11.7180   27.9600 H   0  0  0  0  0  0  0  0  0  0  0  0
   19.4070   11.7700   26.2720 C   0  0  3  0  0  0  0  0  0  0  0  0
   18.9590   12.7220   26.5570 H   0  0  0  0  0  0  0  0  0  0  0  0
   21.6380   10.9530   25.6010 C   0  0  3  0  0  0  0  0  0  0  0  0
   22.4980   11.5110   25.9720 H   0  0  0  0  0  0  0  0  0  0  0  0
   27.9980   13.3320   22.4170 C   0  0  3  0  0  0  0  0  0  0  0  0
   31.1870   15.4700   22.9610 C   0  0  0  0  0  0  0  0  0  0  0  0
   31.7790   14.6180   22.6270 H   0  0  0  0  0  0  0  0  0  0  0  0
   31.4740   15.7350   23.9780 H   0  0  0  0  0  0  0  0  0  0  0  0
   31.3650   16.3180   22.3000 H   0  0  0  0  0  0  0  0  0  0  0  0
   25.5880   16.1920   25.2840 C   0  0  0  0  0  0  0  0  0  0  0  0
   25.5430   15.8240   26.3090 H   0  0  0  0  0  0  0  0  0  0  0  0
   26.5550   15.9390   24.8500 H   0  0  0  0  0  0  0  0  0  0  0  0
   23.2770   10.0620   22.1220 C   0  0  0  0  0  0  0  0  0  0  0  0
   24.0490    9.4200   22.5450 H   0  0  0  0  0  0  0  0  0  0  0  0
   22.4480    9.4490   21.7690 H   0  0  0  0  0  0  0  0  0  0  0  0
   27.8650   11.8720   21.9640 C   0  0  3  0  0  0  0  0  0  0  0  0
   27.0780   11.8930   20.6780 C   0  0  0  0  0  0  0  0  0  0  0  0
   26.9540   10.8740   20.3110 H   0  0  0  0  0  0  0  0  0  0  0  0
   27.8170   12.7110   19.6490 C   0  0  0  0  0  0  0  0  0  0  0  0
   27.2490   12.7260   18.7200 H   0  0  0  0  0  0  0  0  0  0  0  0
   28.7970   12.2680   19.4690 H   0  0  0  0  0  0  0  0  0  0  0  0
   27.9410   13.7300   20.0160 H   0  0  0  0  0  0  0  0  0  0  0  0
   26.0980   12.3350   20.8580 H   0  0  0  0  0  0  0  0  0  0  0  0
   27.2880   11.3610   22.7350 H   0  0  0  0  0  0  0  0  0  0  0  0
   24.4840   15.5150   24.4650 C   0  0  0  0  0  0  0  0  0  0  0  0
   24.4070   15.9970   23.4900 H   0  0  0  0  0  0  0  0  0  0  0  0
   23.5340   15.6050   24.9910 H   0  0  0  0  0  0  0  0  0  0  0  0
   24.8240   14.0400   24.2780 C   0  0  3  0  0  0  0  0  0  0  0  0
   25.1090   13.7090   25.2770 H   0  0  0  0  0  0  0  0  0  0  0  0
   22.2260   10.1380   24.4290 C   0  0  3  0  0  0  0  0  0  0  0  0
   23.1120    9.6280   24.8060 H   0  0  0  0  0  0  0  0  0  0  0  0
   29.0960   11.0120   21.7030 C   0  0  0  0  0  0  0  0  0  0  0  0
   29.7880   11.0740   22.5430 H   0  0  0  0  0  0  0  0  0  0  0  0
   28.7150   10.0040   21.5410 H   0  0  0  0  0  0  0  0  0  0  0  0
   29.6680   11.3510   20.8390 H   0  0  0  0  0  0  0  0  0  0  0  0
   22.7500   10.9840   23.2440 C   0  0  3  0  0  0  0  0  0  0  0  0
   21.9310   11.5870   22.8520 H   0  0  0  0  0  0  0  0  0  0  0  0
   21.0040   10.0590   26.6180 N   0  3  0  0  0  0  0  0  0  0  0  0
   20.4440    9.3410   26.1810 H   0  0  0  0  0  0  0  0  0  0  0  0
   21.6960    9.6290   27.2150 H   0  0  0  0  0  0  0  0  0  0  0  0
   25.9260   13.8440   23.3410 N   0  0  0  0  0  0  0  0  0  0  0  0
   29.3680   13.8690   22.5250 N   0  0  0  0  0  0  0  0  0  0  0  0
   30.1200   13.2450   22.2690 H   0  0  0  0  0  0  0  0  0  0  0  0
   23.8270   11.8630   23.7040 N   0  0  0  0  0  0  0  0  0  0  0  0
   24.7190   11.4580   23.9510 H   0  0  0  0  0  0  0  0  0  0  0  0
   27.5680   13.2710   24.7900 O   0  0  0  0  0  0  0  0  0  0  0  0
   28.9360   15.9740   23.2820 O   0  0  0  0  0  0  0  0  0  0  0  0
   22.5950   13.7100   23.5250 O   0  0  0  0  0  0  0  0  0  0  0  0
   21.2320    9.2070   23.9900 O   0  0  0  0  0  0  0  0  0  0  0  0
   20.4810    9.7130   23.6710 H   0  0  0  0  0  0  0  0  0  0  0  0
   18.3730   10.8990   25.8080 O   0  0  0  0  0  0  0  0  0  0  0  0
   17.8980   11.3580   25.1110 H   0  0  0  0  0  0  0  0  0  0  0  0
   23.0210   13.5220   18.6820 F   0  0  0  0  0  0  0  0  0  0  0  0
   26.8390   10.7710   18.7780 F   0  0  0  0  0  0  0  0  0  0  0  0
  1  2  1  0  0  0  0
  1  3  2  0  0  0  0
  1  5  1  0  0  0  0
  3  4  1  0  0  0  0
  3  7  1  0  0  0  0
  5  6  1  0  0  0  0
  5  9  2  0  0  0  0
  7  8  1  0  0  0  0
  7 17  2  0  0  0  0
  9 10  1  0  0  0  0
  9 17  1  0  0  0  0
 11 12  1  0  0  0  0
 11 18  2  0  0  0  0
 11 19  1  0  0  0  0
 13 14  1  0  0  0  0
 13 18  1  0  0  0  0
 13 20  2  0  0  0  0
 15 16  1  0  0  0  0
 15 19  2  0  0  0  0
 15 20  1  0  0  0  0
 17 45  1  0  0  0  0
 18 48  1  0  0  0  0
 19 88  1  0  0  0  0
 20 89  1  0  0  0  0
 21 40  1  0  0  0  0
 21 76  1  0  0  0  0
 21 81  2  0  0  0  0
 22 41  1  0  0  0  0
 22 77  1  0  0  0  0
 22 82  2  0  0  0  0
 23 63  1  0  0  0  0
 23 79  1  0  0  0  0
 23 83  2  0  0  0  0
 24 25  1  0  0  0  0
 24 26  1  0  0  0  0
 24 30  1  0  0  0  0
 24 40  1  0  0  0  0
 27 28  1  0  0  0  0
 27 29  1  0  0  0  0
 27 36  1  0  0  0  0
 27 38  1  0  0  0  0
 30 31  1  0  0  0  0
 30 32  1  0  0  0  0
 30 76  1  0  0  0  0
 33 34  1  0  0  0  0
 33 35  1  0  0  0  0
 33 36  1  0  0  0  0
 33 73  1  0  0  0  0
 36 37  1  0  0  0  0
 36 86  1  0  0  0  0
 38 39  1  0  0  0  0
 38 65  1  0  0  0  0
 38 73  1  0  0  0  0
 40 51  1  0  0  0  0
 40 77  1  0  0  0  0
 41 42  1  0  0  0  0
 41 43  1  0  0  0  0
 41 44  1  0  0  0  0
 45 46  1  0  0  0  0
 45 47  1  0  0  0  0
 45 60  1  0  0  0  0
 48 49  1  0  0  0  0
 48 50  1  0  0  0  0
 48 71  1  0  0  0  0
 51 52  1  0  0  0  0
 51 59  1  0  0  0  0
 51 67  1  0  0  0  0
 52 53  1  0  0  0  0
 52 54  1  0  0  0  0
 52 58  1  0  0  0  0
 54 55  1  0  0  0  0
 54 56  1  0  0  0  0
 54 57  1  0  0  0  0
 60 61  1  0  0  0  0
 60 62  1  0  0  0  0
 60 63  1  0  0  0  0
 63 64  1  0  0  0  0
 63 76  1  0  0  0  0
 65 66  1  0  0  0  0
 65 71  1  0  0  0  0
 65 84  1  0  0  0  0
 67 68  1  0  0  0  0
 67 69  1  0  0  0  0
 67 70  1  0  0  0  0
 71 72  1  0  0  0  0
 71 79  1  0  0  0  0
 73 74  1  0  0  0  0
 73 75  1  0  0  0  0
 77 78  1  0  0  0  0
 79 80  1  0  0  0  0
 84 85  1  0  0  0  0
 86 87  1  0  0  0  0
M  CHG  1  73   1
M  END
>  <PARENT_CMPD_ID>
CHEMBL1916001

>  <STANDARD_TYPE>
IC50

>  <RELATION>
=

>  <STANDARD_VALUE>
6.5

>  <STANDARD_UNITS>
nM

>  <COMPOUND_KEY>
28l

>  <PUBMED_ID>
21782431

>  <JOURNAL>
Bioorg.Med.Chem.Lett.

>  <YEAR>
2011

>  <VOLUME>
21

>  <FIRST_PAGE>
6916

>  <Company>
BMS

>  <idx>
357

>  <Model>
Valid

>  <target>
8.1870871

>  <des_pred_mlr>
6.9990802

>  <RF_Canvas>
7.8919358

>  <DNN_Canvas>
7.7256322

>  <pred_CoMFA>
7.7133999

>  <pred_COMSIA>
7.2248001

>  <pred_abm5>
7.9203534

>  <pred_ff8>
8.1091423

>  <pred_gau6>
8.2180605

>  <CID>
BACE_357

>  <active>
1

>  <des_class_bayes>
1

>  <maacs_class_bayes>
1

>  <radial_class_bayes>
0

>  <dend_class_bayes>
1

>  <molprint_class_bayes>
1

>  <RF_canvas>
1

>  <DNN_canvas>
1

$$$$
mcl886_21
  MOE2015           3D

 74 77  0  0  1  0  0  0  0  0999 V2000
   18.6590   12.1810   29.4730 C   0  0  0  0  0  0  0  0  0  0  0  0
   19.6210   12.6620   30.5560 C   0  0  0  0  0  0  0  0  0  0  0  0
   20.2670   13.5760   29.5190 C   0  0  0  0  0  0  0  0  0  0  0  0
   19.6530   12.6980   28.4050 C   0  0  0  0  0  0  0  0  0  0  0  0
   20.6300   11.6970   27.8120 C   0  0  0  0  0  0  0  0  0  0  0  0
   19.0670   13.4660   27.3430 O   0  0  0  0  0  0  0  0  0  0  0  0
   18.4390   12.7520   26.3580 C   0  0  0  0  0  0  0  0  0  0  0  0
   17.4960   13.4390   25.6970 N   0  0  0  0  0  0  0  0  0  0  0  0
   16.8530   12.7880   24.7140 C   0  0  0  0  0  0  0  0  0  0  0  0
   17.0850   11.4640   24.3730 C   0  0  0  0  0  0  0  0  0  0  0  0
   16.2930   10.8030   23.2870 C   0  0  0  0  0  0  0  0  0  0  0  0
   14.9740   10.1330   23.7180 C   0  0  0  0  0  0  0  0  0  0  0  0
   14.0450   11.1080   24.4410 C   0  0  0  0  0  0  0  0  0  0  0  0
   15.2330    8.9260   24.6210 C   0  0  0  0  0  0  0  0  0  0  0  0
   14.2610    9.6440   22.4530 C   0  0  0  0  0  0  0  0  0  0  0  0
   18.0710   10.7870   25.0820 C   0  0  0  0  0  0  0  0  0  0  0  0
   18.7930   11.4400   26.0810 C   0  0  0  0  0  0  0  0  0  0  0  0
   19.8850   10.7610   26.8540 C   0  0  3  0  0  0  0  0  0  0  0  0
   20.9000   10.0460   25.9940 N   0  3  0  0  0  0  0  0  0  0  0  0
   21.6140   10.8730   24.9560 C   0  0  0  0  0  0  0  0  0  0  0  0
   22.1170    9.9330   23.8580 C   0  0  3  0  0  0  0  0  0  0  0  0
   21.0150    9.1250   23.4340 O   0  0  0  0  0  0  0  0  0  0  0  0
   22.7340   10.7090   22.6780 C   0  0  3  0  0  0  0  0  0  0  0  0
   23.8820   11.4920   23.1190 N   0  0  0  0  0  0  0  0  0  0  0  0
   23.7910   12.8470   23.3380 C   0  0  0  0  0  0  0  0  0  0  0  0
   25.0840   13.4850   23.7500 C   0  0  0  0  0  0  0  0  0  0  0  0
   22.7410   13.4710   23.2400 O   0  0  0  0  0  0  0  0  0  0  0  0
   23.1270    9.7780   21.5130 C   0  0  0  0  0  0  0  0  0  0  0  0
   23.8320   10.5020   20.3980 C   0  0  0  0  0  0  0  0  0  0  0  0
   25.1520   10.1960   20.0830 C   0  0  0  0  0  0  0  0  0  0  0  0
   25.8130   10.9070   19.0910 C   0  0  0  0  0  0  0  0  0  0  0  0
   25.2030   11.9200   18.3890 C   0  0  0  0  0  0  0  0  0  0  0  0
   25.7320   12.4670   17.6190 H   0  0  0  0  0  0  0  0  0  0  0  0
   23.8950   12.2080   18.6990 C   0  0  0  0  0  0  0  0  0  0  0  0
   23.2020   11.5150   19.6830 C   0  0  0  0  0  0  0  0  0  0  0  0
   17.6980   12.7090   29.4760 H   0  0  0  0  0  0  0  0  0  0  0  0
   18.4600   11.1060   29.4790 H   0  0  0  0  0  0  0  0  0  0  0  0
   20.2900   11.8780   30.9280 H   0  0  0  0  0  0  0  0  0  0  0  0
   19.1590   13.1650   31.4100 H   0  0  0  0  0  0  0  0  0  0  0  0
   21.3590   13.6220   29.5600 H   0  0  0  0  0  0  0  0  0  0  0  0
   19.8800   14.6020   29.5390 H   0  0  0  0  0  0  0  0  0  0  0  0
   21.1330   11.1060   28.5880 H   0  0  0  0  0  0  0  0  0  0  0  0
   21.4170   12.2540   27.2900 H   0  0  0  0  0  0  0  0  0  0  0  0
   16.1050   13.3820   24.1960 H   0  0  0  0  0  0  0  0  0  0  0  0
   16.9360   10.0660   22.7850 H   0  0  0  0  0  0  0  0  0  0  0  0
   16.0860   11.5570   22.5140 H   0  0  0  0  0  0  0  0  0  0  0  0
   14.4430   11.4140   25.4140 H   0  0  0  0  0  0  0  0  0  0  0  0
   13.0660   10.6520   24.6320 H   0  0  0  0  0  0  0  0  0  0  0  0
   13.8720   12.0110   23.8440 H   0  0  0  0  0  0  0  0  0  0  0  0
   15.6630    9.2210   25.5840 H   0  0  0  0  0  0  0  0  0  0  0  0
   15.9220    8.2160   24.1500 H   0  0  0  0  0  0  0  0  0  0  0  0
   14.3040    8.3870   24.8380 H   0  0  0  0  0  0  0  0  0  0  0  0
   14.0290   10.4750   21.7780 H   0  0  0  0  0  0  0  0  0  0  0  0
   13.3160    9.1420   22.6930 H   0  0  0  0  0  0  0  0  0  0  0  0
   14.8810    8.9290   21.8980 H   0  0  0  0  0  0  0  0  0  0  0  0
   18.2650    9.7430   24.8450 H   0  0  0  0  0  0  0  0  0  0  0  0
   19.4140    9.9670   27.4470 H   0  0  0  0  0  0  0  0  0  0  0  0
   20.4340    9.2940   25.4570 H   0  0  0  0  0  0  0  0  0  0  0  0
   21.5850    9.5590   26.5870 H   0  0  0  0  0  0  0  0  0  0  0  0
   22.4270   11.3990   25.4630 H   0  0  0  0  0  0  0  0  0  0  0  0
   20.8980   11.5890   24.5440 H   0  0  0  0  0  0  0  0  0  0  0  0
   22.8630    9.2520   24.2850 H   0  0  0  0  0  0  0  0  0  0  0  0
   20.5140    9.5960   22.7400 H   0  0  0  0  0  0  0  0  0  0  0  0
   21.9680   11.3960   22.2950 H   0  0  0  0  0  0  0  0  0  0  0  0
   24.7780   11.0300   23.2510 H   0  0  0  0  0  0  0  0  0  0  0  0
   25.9280   13.0260   23.2280 H   0  0  0  0  0  0  0  0  0  0  0  0
   25.2170   13.3670   24.8290 H   0  0  0  0  0  0  0  0  0  0  0  0
   25.0610   14.5500   23.5010 H   0  0  0  0  0  0  0  0  0  0  0  0
   22.2400    9.2840   21.0990 H   0  0  0  0  0  0  0  0  0  0  0  0
   23.7730    8.9750   21.8950 H   0  0  0  0  0  0  0  0  0  0  0  0
   25.6910    9.4100   20.6040 H   0  0  0  0  0  0  0  0  0  0  0  0
   27.0820   10.6010   18.8160 F   0  0  0  0  0  0  0  0  0  0  0  0
   23.2720   13.1830   18.0360 F   0  0  0  0  0  0  0  0  0  0  0  0
   22.1720   11.7930   19.8840 H   0  0  0  0  0  0  0  0  0  0  0  0
  1  2  1  0  0  0  0
  1  4  1  0  0  0  0
  1 36  1  0  0  0  0
  1 37  1  0  0  0  0
  2  3  1  0  0  0  0
  2 38  1  0  0  0  0
  2 39  1  0  0  0  0
  3  4  1  0  0  0  0
  3 40  1  0  0  0  0
  3 41  1  0  0  0  0
  4  5  1  0  0  0  0
  4  6  1  0  0  0  0
  5 18  1  0  0  0  0
  5 42  1  0  0  0  0
  5 43  1  0  0  0  0
  6  7  1  0  0  0  0
  7  8  1  0  0  0  0
  7 17  2  0  0  0  0
  8  9  2  0  0  0  0
  9 10  1  0  0  0  0
  9 44  1  0  0  0  0
 10 11  1  0  0  0  0
 10 16  2  0  0  0  0
 11 12  1  0  0  0  0
 11 45  1  0  0  0  0
 11 46  1  0  0  0  0
 12 13  1  0  0  0  0
 12 14  1  0  0  0  0
 12 15  1  0  0  0  0
 13 47  1  0  0  0  0
 13 48  1  0  0  0  0
 13 49  1  0  0  0  0
 14 50  1  0  0  0  0
 14 51  1  0  0  0  0
 14 52  1  0  0  0  0
 15 53  1  0  0  0  0
 15 54  1  0  0  0  0
 15 55  1  0  0  0  0
 16 17  1  0  0  0  0
 16 56  1  0  0  0  0
 17 18  1  0  0  0  0
 18 19  1  0  0  0  0
 18 57  1  0  0  0  0
 19 20  1  0  0  0  0
 19 58  1  0  0  0  0
 19 59  1  0  0  0  0
 20 21  1  0  0  0  0
 20 60  1  0  0  0  0
 20 61  1  0  0  0  0
 21 22  1  0  0  0  0
 21 23  1  0  0  0  0
 21 62  1  0  0  0  0
 22 63  1  0  0  0  0
 23 24  1  0  0  0  0
 23 28  1  0  0  0  0
 23 64  1  0  0  0  0
 24 25  1  0  0  0  0
 24 65  1  0  0  0  0
 25 26  1  0  0  0  0
 25 27  2  0  0  0  0
 26 66  1  0  0  0  0
 26 67  1  0  0  0  0
 26 68  1  0  0  0  0
 28 29  1  0  0  0  0
 28 69  1  0  0  0  0
 28 70  1  0  0  0  0
 29 30  1  0  0  0  0
 29 35  2  0  0  0  0
 30 31  2  0  0  0  0
 30 71  1  0  0  0  0
 31 32  1  0  0  0  0
 31 72  1  0  0  0  0
 32 33  1  0  0  0  0
 32 34  2  0  0  0  0
 34 35  1  0  0  0  0
 34 73  1  0  0  0  0
 35 74  1  0  0  0  0
M  CHG  1  19   1
M  END
>  <PARENT_CMPD_ID>
mcl886_21

>  <STANDARD_TYPE>
IC50

>  <RELATION>
=

>  <STANDARD_VALUE>
6.9000001

>  <STANDARD_UNITS>
nM

>  <COMPOUND_KEY>
21

>  <PUBMED_ID>
24900403

>  <JOURNAL>
ACS Med. Chem. Lett.

>  <YEAR>
2012

>  <VOLUME>
3

>  <FIRST_PAGE>
886

>  <Company>
Amgen

>  <idx>
358

>  <Model>
Valid

>  <target>
8.1611509

>  <des_pred_mlr>
7.1754699

>  <RF_Canvas>
7.9297395

>  <DNN_Canvas>
7.8818917

>  <pred_CoMFA>
7.8585

>  <pred_COMSIA>
7.3994002

>  <pred_abm5>
8.0851393

>  <pred_ff8>
7.7271571

>  <pred_gau6>
7.8724823

>  <CID>
BACE_358

>  <active>
1

>  <des_class_bayes>
0

>  <maacs_class_bayes>
1

>  <radial_class_bayes>
1

>  <dend_class_bayes>
1

>  <molprint_class_bayes>
1

>  <RF_canvas>
1

>  <DNN_canvas>
1

$$$$
22468684_17
  MOE2015           3D

 84 88  0  0  1  0  0  0  0  0999 V2000
   20.7540   13.9040   29.6240 C   0  0  0  0  0  0  0  0  0  0  0  0
   20.1180   13.0250   30.6970 C   0  0  0  0  0  0  0  0  0  0  0  0
   19.1120   12.5510   29.6520 C   0  0  0  0  0  0  0  0  0  0  0  0
   20.0880   13.0170   28.5460 C   0  0  0  0  0  0  0  0  0  0  0  0
   21.0210   11.9730   27.9570 C   0  0  0  0  0  0  0  0  0  0  0  0
   19.4970   13.7800   27.4820 O   0  0  0  0  0  0  0  0  0  0  0  0
   18.8620   13.0730   26.4980 C   0  0  0  0  0  0  0  0  0  0  0  0
   17.9680   13.7880   25.7990 N   0  0  0  0  0  0  0  0  0  0  0  0
   17.3270   13.1510   24.8060 C   0  0  0  0  0  0  0  0  0  0  0  0
   17.5140   11.8150   24.4870 C   0  0  0  0  0  0  0  0  0  0  0  0
   16.7180   11.1690   23.3940 C   0  0  0  0  0  0  0  0  0  0  0  0
   15.3870   10.5170   23.8210 C   0  0  0  0  0  0  0  0  0  0  0  0
   14.4840   11.4930   24.5760 C   0  0  0  0  0  0  0  0  0  0  0  0
   15.6290    9.2830   24.6910 C   0  0  0  0  0  0  0  0  0  0  0  0
   14.6520   10.0730   22.5520 C   0  0  0  0  0  0  0  0  0  0  0  0
   18.4510   11.1090   25.2320 C   0  0  0  0  0  0  0  0  0  0  0  0
   19.1710   11.7450   26.2440 C   0  0  0  0  0  0  0  0  0  0  0  0
   20.2250   11.0360   27.0420 C   0  0  3  0  0  0  0  0  0  0  0  0
   21.2030   10.2380   26.2110 N   0  3  0  0  0  0  0  0  0  0  0  0
   21.9280   10.9970   25.1310 C   0  0  0  0  0  0  0  0  0  0  0  0
   22.3660   10.0160   24.0470 C   0  0  3  0  0  0  0  0  0  0  0  0
   21.2210    9.2460   23.6600 O   0  0  0  0  0  0  0  0  0  0  0  0
   22.9930   10.7290   22.8270 C   0  0  3  0  0  0  0  0  0  0  0  0
   24.0120   11.6840   23.2430 N   0  0  0  0  0  0  0  0  0  0  0  0
   23.7640   13.0380   23.3260 C   0  0  0  0  0  0  0  0  0  0  0  0
   22.6690   13.5370   23.0910 O   0  0  0  0  0  0  0  0  0  0  0  0
   24.9390   13.8510   23.8430 C   0  0  0  0  0  0  0  0  0  0  0  0
   26.1830   13.3110   23.4310 O   0  0  0  0  0  0  0  0  0  0  0  0
   26.6030   13.8360   22.1800 C   0  0  0  0  0  0  0  0  0  0  0  0
   23.5300    9.6880   21.8250 C   0  0  0  0  0  0  0  0  0  0  0  0
   24.3630   10.2820   20.7270 C   0  0  0  0  0  0  0  0  0  0  0  0
   25.7500   10.3120   20.8720 C   0  0  0  0  0  0  0  0  0  0  0  0
   23.7890   10.8500   19.5970 C   0  0  0  0  0  0  0  0  0  0  0  0
   24.5940   11.4400   18.6320 C   0  0  0  0  0  0  0  0  0  0  0  0
   25.9750   11.4760   18.7950 C   0  0  0  0  0  0  0  0  0  0  0  0
   26.5690   10.9100   19.9190 C   0  0  0  0  0  0  0  0  0  0  0  0
   28.0030   10.9960   20.1230 C   0  0  0  0  0  0  0  0  0  0  0  0
   28.7240   12.0650   19.6340 N   0  0  0  0  0  0  0  0  0  0  0  0
   29.9800   11.9380   19.9910 C   0  0  0  0  0  0  0  0  0  0  0  0
   30.7310   12.6670   19.7180 H   0  0  0  0  0  0  0  0  0  0  0  0
   30.3700   10.5590   20.9180 S   0  0  0  0  0  0  0  0  0  0  0  0
   28.7370   10.0660   20.8350 C   0  0  0  0  0  0  0  0  0  0  0  0
   28.4140    9.1480   21.3030 H   0  0  0  0  0  0  0  0  0  0  0  0
   21.8480   13.9260   29.6320 H   0  0  0  0  0  0  0  0  0  0  0  0
   20.3910   14.9390   29.6340 H   0  0  0  0  0  0  0  0  0  0  0  0
   19.6970   13.5540   31.5550 H   0  0  0  0  0  0  0  0  0  0  0  0
   20.7780   12.2300   31.0630 H   0  0  0  0  0  0  0  0  0  0  0  0
   18.1670   13.1070   29.6710 H   0  0  0  0  0  0  0  0  0  0  0  0
   18.8810   11.4830   29.6870 H   0  0  0  0  0  0  0  0  0  0  0  0
   21.5260   11.3880   28.7360 H   0  0  0  0  0  0  0  0  0  0  0  0
   21.8110   12.4930   27.4000 H   0  0  0  0  0  0  0  0  0  0  0  0
   16.6160   13.7680   24.2610 H   0  0  0  0  0  0  0  0  0  0  0  0
   17.3530   10.4260   22.8900 H   0  0  0  0  0  0  0  0  0  0  0  0
   16.5220   11.9300   22.6240 H   0  0  0  0  0  0  0  0  0  0  0  0
   14.9000   11.7690   25.5510 H   0  0  0  0  0  0  0  0  0  0  0  0
   13.4990   11.0510   24.7680 H   0  0  0  0  0  0  0  0  0  0  0  0
   14.3230   12.4120   24.0020 H   0  0  0  0  0  0  0  0  0  0  0  0
   16.0670    9.5450   25.6600 H   0  0  0  0  0  0  0  0  0  0  0  0
   16.3030    8.5730   24.1990 H   0  0  0  0  0  0  0  0  0  0  0  0
   14.6910    8.7550   24.8990 H   0  0  0  0  0  0  0  0  0  0  0  0
   14.4300   10.9250   21.9000 H   0  0  0  0  0  0  0  0  0  0  0  0
   13.7000    9.5840   22.7890 H   0  0  0  0  0  0  0  0  0  0  0  0
   15.2520    9.3610   21.9730 H   0  0  0  0  0  0  0  0  0  0  0  0
   18.6120   10.0570   25.0090 H   0  0  0  0  0  0  0  0  0  0  0  0
   19.7160   10.2910   27.6660 H   0  0  0  0  0  0  0  0  0  0  0  0
   20.6970    9.4840   25.7140 H   0  0  0  0  0  0  0  0  0  0  0  0
   21.8760    9.7500   26.8170 H   0  0  0  0  0  0  0  0  0  0  0  0
   22.7740   11.4990   25.6080 H   0  0  0  0  0  0  0  0  0  0  0  0
   21.2400   11.7350   24.7130 H   0  0  0  0  0  0  0  0  0  0  0  0
   23.0900    9.3170   24.4830 H   0  0  0  0  0  0  0  0  0  0  0  0
   20.8030    9.6570   22.8790 H   0  0  0  0  0  0  0  0  0  0  0  0
   22.2020   11.2880   22.3090 H   0  0  0  0  0  0  0  0  0  0  0  0
   24.9620   11.3820   23.4590 H   0  0  0  0  0  0  0  0  0  0  0  0
   24.8310   14.8990   23.5410 H   0  0  0  0  0  0  0  0  0  0  0  0
   24.9030   13.8070   24.9370 H   0  0  0  0  0  0  0  0  0  0  0  0
   27.5620   13.3800   21.9240 H   0  0  0  0  0  0  0  0  0  0  0  0
   26.7480   14.9180   22.2480 H   0  0  0  0  0  0  0  0  0  0  0  0
   25.8750   13.6050   21.3970 H   0  0  0  0  0  0  0  0  0  0  0  0
   22.6970    9.1270   21.3810 H   0  0  0  0  0  0  0  0  0  0  0  0
   24.1320    8.9380   22.3570 H   0  0  0  0  0  0  0  0  0  0  0  0
   26.1880    9.8860   21.7730 H   0  0  0  0  0  0  0  0  0  0  0  0
   22.7100   10.8500   19.4640 H   0  0  0  0  0  0  0  0  0  0  0  0
   24.1430   11.8890   17.7510 H   0  0  0  0  0  0  0  0  0  0  0  0
   26.5880   11.9600   18.0370 H   0  0  0  0  0  0  0  0  0  0  0  0
  1  2  1  0  0  0  0
  1  4  1  0  0  0  0
  1 44  1  0  0  0  0
  1 45  1  0  0  0  0
  2  3  1  0  0  0  0
  2 46  1  0  0  0  0
  2 47  1  0  0  0  0
  3  4  1  0  0  0  0
  3 48  1  0  0  0  0
  3 49  1  0  0  0  0
  4  5  1  0  0  0  0
  4  6  1  0  0  0  0
  5 18  1  0  0  0  0
  5 50  1  0  0  0  0
  5 51  1  0  0  0  0
  6  7  1  0  0  0  0
  7  8  1  0  0  0  0
  7 17  2  0  0  0  0
  8  9  2  0  0  0  0
  9 10  1  0  0  0  0
  9 52  1  0  0  0  0
 10 11  1  0  0  0  0
 10 16  2  0  0  0  0
 11 12  1  0  0  0  0
 11 53  1  0  0  0  0
 11 54  1  0  0  0  0
 12 13  1  0  0  0  0
 12 14  1  0  0  0  0
 12 15  1  0  0  0  0
 13 55  1  0  0  0  0
 13 56  1  0  0  0  0
 13 57  1  0  0  0  0
 14 58  1  0  0  0  0
 14 59  1  0  0  0  0
 14 60  1  0  0  0  0
 15 61  1  0  0  0  0
 15 62  1  0  0  0  0
 15 63  1  0  0  0  0
 16 17  1  0  0  0  0
 16 64  1  0  0  0  0
 17 18  1  0  0  0  0
 18 19  1  0  0  0  0
 18 65  1  0  0  0  0
 19 20  1  0  0  0  0
 19 66  1  0  0  0  0
 19 67  1  0  0  0  0
 20 21  1  0  0  0  0
 20 68  1  0  0  0  0
 20 69  1  0  0  0  0
 21 22  1  0  0  0  0
 21 23  1  0  0  0  0
 21 70  1  0  0  0  0
 22 71  1  0  0  0  0
 23 24  1  0  0  0  0
 23 30  1  0  0  0  0
 23 72  1  0  0  0  0
 24 25  1  0  0  0  0
 24 73  1  0  0  0  0
 25 26  2  0  0  0  0
 25 27  1  0  0  0  0
 27 28  1  0  0  0  0
 27 74  1  0  0  0  0
 27 75  1  0  0  0  0
 28 29  1  0  0  0  0
 29 76  1  0  0  0  0
 29 77  1  0  0  0  0
 29 78  1  0  0  0  0
 30 31  1  0  0  0  0
 30 79  1  0  0  0  0
 30 80  1  0  0  0  0
 31 32  1  0  0  0  0
 31 33  2  0  0  0  0
 32 36  2  0  0  0  0
 32 81  1  0  0  0  0
 33 34  1  0  0  0  0
 33 82  1  0  0  0  0
 34 35  2  0  0  0  0
 34 83  1  0  0  0  0
 35 36  1  0  0  0  0
 35 84  1  0  0  0  0
 36 37  1  0  0  0  0
 37 38  1  0  0  0  0
 37 42  2  0  0  0  0
 38 39  2  0  0  0  0
 39 40  1  0  0  0  0
 39 41  1  0  0  0  0
 41 42  1  0  0  0  0
 42 43  1  0  0  0  0
M  CHG  1  19   1
M  END
>  <PARENT_CMPD_ID>
22468684_17

>  <STANDARD_TYPE>
IC50

>  <RELATION>
=

>  <STANDARD_VALUE>
6.9000001

>  <STANDARD_UNITS>
nM

>  <COMPOUND_KEY>
17

>  <PUBMED_ID>
22468684

>  <JOURNAL>
J.Med.Chem.

>  <YEAR>
2012

>  <VOLUME>
55

>  <FIRST_PAGE>
9025

>  <Company>
Amgen

>  <idx>
359

>  <Model>
Valid

>  <target>
8.1611509

>  <des_pred_mlr>
7.4594998

>  <RF_Canvas>
7.9035711

>  <DNN_Canvas>
7.852798

>  <pred_CoMFA>
8.7950001

>  <pred_COMSIA>
8.5632

>  <pred_abm5>
8.8923683

>  <pred_ff8>
8.3079138

>  <pred_gau6>
8.8563519

>  <CID>
BACE_359

>  <active>
1

>  <des_class_bayes>
1

>  <maacs_class_bayes>
1

>  <radial_class_bayes>
0

>  <dend_class_bayes>
1

>  <molprint_class_bayes>
1

>  <RF_canvas>
1

>  <DNN_canvas>
1

$$$$
CHEMBL560092
  MOE2015           3D

 73 76  0  0  1  0  0  0  0  0999 V2000
   29.6120   11.0700   21.4270 C   0  0  0  0  0  0  0  0  0  0  0  0
   29.3470   12.4650   20.8970 C   0  0  0  0  0  0  0  0  0  0  0  0
   29.1210   13.4470   21.9860 C   0  0  0  0  0  0  0  0  0  0  0  0
   30.0450   14.3220   22.4850 C   0  0  0  0  0  0  0  0  0  0  0  0
   29.5130   14.9440   23.5830 N   0  0  0  0  0  0  0  0  0  0  0  0
   30.3910   15.6750   24.4680 C   0  0  0  0  0  0  0  0  0  0  0  0
   29.8520   16.6600   25.4560 C   0  0  0  0  0  0  0  0  0  0  0  0
   29.4400   17.5470   24.9670 H   0  0  0  0  0  0  0  0  0  0  0  0
   30.6650   17.0080   26.1040 H   0  0  0  0  0  0  0  0  0  0  0  0
   28.6160   15.9960   26.5340 S   0  0  0  0  0  0  0  0  0  0  0  0
   28.8170   14.5930   26.8180 O   0  0  0  0  0  0  0  0  0  0  0  0
   28.4180   16.9320   27.6180 O   0  0  0  0  0  0  0  0  0  0  0  0
   27.2690   16.0960   25.5220 N   0  0  0  0  0  0  0  0  0  0  0  0
   26.6510   17.3920   25.2460 C   0  0  0  0  0  0  0  0  0  0  0  0
   27.1410   15.0840   24.5320 C   0  0  0  0  0  0  0  0  0  0  0  0
   25.8770   14.4950   24.4100 C   0  0  0  0  0  0  0  0  0  0  0  0
   25.6510   13.4660   23.5180 C   0  0  0  0  0  0  0  0  0  0  0  0
   26.6640   13.0610   22.6560 C   0  0  0  0  0  0  0  0  0  0  0  0
   27.9310   13.6600   22.7250 C   0  0  0  0  0  0  0  0  0  0  0  0
   28.1720   14.6580   23.6760 C   0  0  0  0  0  0  0  0  0  0  0  0
   24.3200   12.8170   23.4630 C   0  0  0  0  0  0  0  0  0  0  0  0
   23.2860   13.4610   23.5780 O   0  0  0  0  0  0  0  0  0  0  0  0
   24.3400   11.4590   23.2290 N   0  0  0  0  0  0  0  0  0  0  0  0
   23.1420   10.6940   22.8990 C   0  0  3  0  0  0  0  0  0  0  0  0
   23.4390    9.7490   21.7140 C   0  0  0  0  0  0  0  0  0  0  0  0
   24.2720   10.3890   20.6320 C   0  0  0  0  0  0  0  0  0  0  0  0
   25.4970    9.8300   20.2700 C   0  0  0  0  0  0  0  0  0  0  0  0
   26.3010   10.4460   19.3190 C   0  0  0  0  0  0  0  0  0  0  0  0
   25.8890   11.6270   18.7220 C   0  0  0  0  0  0  0  0  0  0  0  0
   24.6690   12.1860   19.0660 C   0  0  0  0  0  0  0  0  0  0  0  0
   23.8590   11.5660   20.0080 C   0  0  0  0  0  0  0  0  0  0  0  0
   22.5980    9.9460   24.1340 C   0  0  3  0  0  0  0  0  0  0  0  0
   21.4410    9.1590   23.8140 O   0  0  0  0  0  0  0  0  0  0  0  0
   22.1730   10.9250   25.2270 C   0  0  0  0  0  0  0  0  0  0  0  0
   21.2190   10.2000   26.1410 N   0  3  0  0  0  0  0  0  0  0  0  0
   20.1680   11.0780   26.7370 C   0  0  0  0  0  0  0  0  0  0  0  0
   19.0410   11.2470   25.7290 C   0  0  0  0  0  0  0  0  0  0  0  0
   18.2580   12.4870   26.0260 C   0  0  0  0  0  0  0  0  0  0  0  0
   17.7340   12.4220   27.2570 F   0  0  0  0  0  0  0  0  0  0  0  0
   17.2610   12.6510   25.1420 F   0  0  0  0  0  0  0  0  0  0  0  0
   19.0400   13.5730   25.9730 F   0  0  0  0  0  0  0  0  0  0  0  0
   29.7870   10.3760   20.5980 H   0  0  0  0  0  0  0  0  0  0  0  0
   28.7640   10.6930   22.0080 H   0  0  0  0  0  0  0  0  0  0  0  0
   30.4950   11.0530   22.0750 H   0  0  0  0  0  0  0  0  0  0  0  0
   28.4790   12.4470   20.2290 H   0  0  0  0  0  0  0  0  0  0  0  0
   30.1990   12.7810   20.2820 H   0  0  0  0  0  0  0  0  0  0  0  0
   31.0810   14.4740   22.2050 H   0  0  0  0  0  0  0  0  0  0  0  0
   30.9560   14.9030   25.0080 H   0  0  0  0  0  0  0  0  0  0  0  0
   31.1140   16.2030   23.8320 H   0  0  0  0  0  0  0  0  0  0  0  0
   25.5660   17.2860   25.1470 H   0  0  0  0  0  0  0  0  0  0  0  0
   27.0480   17.8230   24.3220 H   0  0  0  0  0  0  0  0  0  0  0  0
   26.8210   18.1040   26.0580 H   0  0  0  0  0  0  0  0  0  0  0  0
   25.0730   14.8180   25.0700 H   0  0  0  0  0  0  0  0  0  0  0  0
   26.4890   12.2980   21.9040 H   0  0  0  0  0  0  0  0  0  0  0  0
   25.2280   10.9670   23.2620 H   0  0  0  0  0  0  0  0  0  0  0  0
   22.3680   11.3960   22.5590 H   0  0  0  0  0  0  0  0  0  0  0  0
   23.9630    8.8610   22.0920 H   0  0  0  0  0  0  0  0  0  0  0  0
   22.5030    9.3890   21.2710 H   0  0  0  0  0  0  0  0  0  0  0  0
   25.8480    8.9110   20.7330 H   0  0  0  0  0  0  0  0  0  0  0  0
   27.2570   10.0060   19.0490 H   0  0  0  0  0  0  0  0  0  0  0  0
   26.5190   12.1100   17.9800 H   0  0  0  0  0  0  0  0  0  0  0  0
   24.3400   13.1070   18.5910 H   0  0  0  0  0  0  0  0  0  0  0  0
   22.9040   12.0210   20.2610 H   0  0  0  0  0  0  0  0  0  0  0  0
   23.3550    9.2620   24.5370 H   0  0  0  0  0  0  0  0  0  0  0  0
   21.7090    8.4480   23.2000 H   0  0  0  0  0  0  0  0  0  0  0  0
   21.6260   11.7710   24.8000 H   0  0  0  0  0  0  0  0  0  0  0  0
   23.0070   11.2920   25.8320 H   0  0  0  0  0  0  0  0  0  0  0  0
   20.8010    9.4680   25.5290 H   0  0  0  0  0  0  0  0  0  0  0  0
   21.7460    9.6980   26.8660 H   0  0  0  0  0  0  0  0  0  0  0  0
   19.8090   10.5690   27.6380 H   0  0  0  0  0  0  0  0  0  0  0  0
   20.6510   12.0160   27.0290 H   0  0  0  0  0  0  0  0  0  0  0  0
   18.3840   10.3700   25.7570 H   0  0  0  0  0  0  0  0  0  0  0  0
   19.4200   11.3190   24.7030 H   0  0  0  0  0  0  0  0  0  0  0  0
  1  2  1  0  0  0  0
  1 42  1  0  0  0  0
  1 43  1  0  0  0  0
  1 44  1  0  0  0  0
  2  3  1  0  0  0  0
  2 45  1  0  0  0  0
  2 46  1  0  0  0  0
  3  4  2  0  0  0  0
  3 19  1  0  0  0  0
  4  5  1  0  0  0  0
  4 47  1  0  0  0  0
  5  6  1  0  0  0  0
  5 20  1  0  0  0  0
  6  7  1  0  0  0  0
  6 48  1  0  0  0  0
  6 49  1  0  0  0  0
  7  8  1  0  0  0  0
  7  9  1  0  0  0  0
  7 10  1  0  0  0  0
 10 11  2  0  0  0  0
 10 12  2  0  0  0  0
 10 13  1  0  0  0  0
 13 14  1  0  0  0  0
 13 15  1  0  0  0  0
 14 50  1  0  0  0  0
 14 51  1  0  0  0  0
 14 52  1  0  0  0  0
 15 16  1  0  0  0  0
 15 20  2  0  0  0  0
 16 17  2  0  0  0  0
 16 53  1  0  0  0  0
 17 18  1  0  0  0  0
 17 21  1  0  0  0  0
 18 19  2  0  0  0  0
 18 54  1  0  0  0  0
 19 20  1  0  0  0  0
 21 22  2  0  0  0  0
 21 23  1  0  0  0  0
 23 24  1  0  0  0  0
 23 55  1  0  0  0  0
 24 25  1  0  0  0  0
 24 32  1  0  0  0  0
 24 56  1  0  0  0  0
 25 26  1  0  0  0  0
 25 57  1  0  0  0  0
 25 58  1  0  0  0  0
 26 27  1  0  0  0  0
 26 31  2  0  0  0  0
 27 28  2  0  0  0  0
 27 59  1  0  0  0  0
 28 29  1  0  0  0  0
 28 60  1  0  0  0  0
 29 30  2  0  0  0  0
 29 61  1  0  0  0  0
 30 31  1  0  0  0  0
 30 62  1  0  0  0  0
 31 63  1  0  0  0  0
 32 33  1  0  0  0  0
 32 34  1  0  0  0  0
 32 64  1  0  0  0  0
 33 65  1  0  0  0  0
 34 35  1  0  0  0  0
 34 66  1  0  0  0  0
 34 67  1  0  0  0  0
 35 36  1  0  0  0  0
 35 68  1  0  0  0  0
 35 69  1  0  0  0  0
 36 37  1  0  0  0  0
 36 70  1  0  0  0  0
 36 71  1  0  0  0  0
 37 38  1  0  0  0  0
 37 72  1  0  0  0  0
 37 73  1  0  0  0  0
 38 39  1  0  0  0  0
 38 40  1  0  0  0  0
 38 41  1  0  0  0  0
M  CHG  1  35   1
M  END
>  <PARENT_CMPD_ID>
CHEMBL560092

>  <STANDARD_TYPE>
IC50

>  <RELATION>
=

>  <STANDARD_VALUE>
7

>  <STANDARD_UNITS>
nM

>  <COMPOUND_KEY>
15

>  <PUBMED_ID>
19477642

>  <JOURNAL>
Bioorg. Med. Chem. Lett.

>  <YEAR>
2009

>  <VOLUME>
19

>  <FIRST_PAGE>
3669

>  <Company>
GSK

>  <idx>
360

>  <Model>
Valid

>  <target>
8.1549015

>  <des_pred_mlr>
6.9639401

>  <RF_Canvas>
7.8323059

>  <DNN_Canvas>
7.5633764

>  <pred_CoMFA>
6.7955999

>  <pred_COMSIA>
6.5311999

>  <pred_abm5>
6.9682908

>  <pred_ff8>
7.8980451

>  <pred_gau6>
6.2894025

>  <CID>
BACE_360

>  <active>
1

>  <des_class_bayes>
0

>  <maacs_class_bayes>
1

>  <radial_class_bayes>
1

>  <dend_class_bayes>
1

>  <molprint_class_bayes>
1

>  <RF_canvas>
1

>  <DNN_canvas>
1

$$$$
CHEMBL558582
  MOE2015           3D

 83 87  0  0  1  0  0  0  0  0999 V2000
   28.7350   13.5000   27.0790 C   0  0  0  0  0  0  0  0  0  0  0  0
   27.4690   14.3330   27.0030 C   0  0  0  0  0  0  0  0  0  0  0  0
   27.5110   15.4020   25.9490 N   0  0  0  0  0  0  0  0  0  0  0  0
   27.1840   14.9760   24.6230 C   0  0  0  0  0  0  0  0  0  0  0  0
   25.9000   14.4350   24.4590 C   0  0  0  0  0  0  0  0  0  0  0  0
   25.6400   13.4830   23.4920 C   0  0  0  0  0  0  0  0  0  0  0  0
   26.6470   13.0880   22.6150 C   0  0  0  0  0  0  0  0  0  0  0  0
   27.9200   13.6710   22.7040 C   0  0  0  0  0  0  0  0  0  0  0  0
   29.1390   13.4380   22.0140 C   0  0  0  0  0  0  0  0  0  0  0  0
   29.3910   12.4380   20.9460 C   0  0  0  0  0  0  0  0  0  0  0  0
   29.6120   11.0450   21.4960 C   0  0  0  0  0  0  0  0  0  0  0  0
   30.0570   14.3150   22.5340 C   0  0  0  0  0  0  0  0  0  0  0  0
   29.4290   15.1010   23.4530 N   0  0  0  0  0  0  0  0  0  0  0  0
   30.0400   16.2750   24.0320 C   0  0  0  0  0  0  0  0  0  0  0  0
   30.0650   16.3090   25.5320 C   0  0  0  0  0  0  0  0  0  0  0  0
   28.4860   16.7320   26.2380 S   0  0  0  0  0  0  0  0  0  0  0  0
   27.9080   17.8530   25.5310 O   0  0  0  0  0  0  0  0  0  0  0  0
   28.6580   16.7860   27.6750 O   0  0  0  0  0  0  0  0  0  0  0  0
   28.1540   14.6500   23.6690 C   0  0  0  0  0  0  0  0  0  0  0  0
   24.3070   12.8350   23.4530 C   0  0  0  0  0  0  0  0  0  0  0  0
   23.2740   13.4790   23.5740 O   0  0  0  0  0  0  0  0  0  0  0  0
   24.3200   11.4750   23.2280 N   0  0  0  0  0  0  0  0  0  0  0  0
   23.1150   10.7140   22.9050 C   0  0  3  0  0  0  0  0  0  0  0  0
   23.4210    9.7540   21.7320 C   0  0  0  0  0  0  0  0  0  0  0  0
   24.2630   10.3780   20.6460 C   0  0  0  0  0  0  0  0  0  0  0  0
   25.4820    9.8020   20.2860 C   0  0  0  0  0  0  0  0  0  0  0  0
   26.2970   10.4080   19.3380 C   0  0  0  0  0  0  0  0  0  0  0  0
   25.9040   11.5940   18.7390 C   0  0  0  0  0  0  0  0  0  0  0  0
   24.6880   12.1680   19.0770 C   0  0  0  0  0  0  0  0  0  0  0  0
   23.8670   11.5580   20.0160 C   0  0  0  0  0  0  0  0  0  0  0  0
   22.5480    9.9850   24.1470 C   0  0  3  0  0  0  0  0  0  0  0  0
   21.4290    9.1510   23.8100 O   0  0  0  0  0  0  0  0  0  0  0  0
   21.9900   11.0030   25.1500 C   0  0  0  0  0  0  0  0  0  0  0  0
   20.9890   10.3040   26.0430 N   0  3  0  0  0  0  0  0  0  0  0  0
   19.6930   11.0190   26.3510 C   0  0  0  0  0  0  0  0  0  0  0  0
   18.7530   10.8550   25.1530 C   0  0  0  0  0  0  0  0  0  0  0  0
   17.4750   11.6670   25.2720 C   0  0  0  0  0  0  0  0  0  0  0  0
   17.7750   13.1250   25.5550 C   0  0  0  0  0  0  0  0  0  0  0  0
   18.6000   13.2510   26.8210 C   0  0  0  0  0  0  0  0  0  0  0  0
   19.9060   12.4760   26.7370 C   0  0  0  0  0  0  0  0  0  0  0  0
   28.5780   12.6460   27.7470 H   0  0  0  0  0  0  0  0  0  0  0  0
   29.5680   14.0760   27.4910 H   0  0  0  0  0  0  0  0  0  0  0  0
   29.0300   13.1110   26.1010 H   0  0  0  0  0  0  0  0  0  0  0  0
   27.2550   14.7870   27.9770 H   0  0  0  0  0  0  0  0  0  0  0  0
   26.6210   13.6610   26.8260 H   0  0  0  0  0  0  0  0  0  0  0  0
   25.1280   14.6810   25.1870 H   0  0  0  0  0  0  0  0  0  0  0  0
   26.4620   12.3400   21.8510 H   0  0  0  0  0  0  0  0  0  0  0  0
   28.5500   12.4280   20.2450 H   0  0  0  0  0  0  0  0  0  0  0  0
   30.2710   12.7340   20.3610 H   0  0  0  0  0  0  0  0  0  0  0  0
   28.7350   10.6870   22.0470 H   0  0  0  0  0  0  0  0  0  0  0  0
   30.4680   11.0180   22.1790 H   0  0  0  0  0  0  0  0  0  0  0  0
   29.8060   10.3400   20.6810 H   0  0  0  0  0  0  0  0  0  0  0  0
   31.0970   14.4710   22.2730 H   0  0  0  0  0  0  0  0  0  0  0  0
   31.0740   16.3180   23.6680 H   0  0  0  0  0  0  0  0  0  0  0  0
   29.5220   17.1410   23.6050 H   0  0  0  0  0  0  0  0  0  0  0  0
   30.7430   17.1040   25.8640 H   0  0  0  0  0  0  0  0  0  0  0  0
   30.4220   15.3750   25.9670 H   0  0  0  0  0  0  0  0  0  0  0  0
   25.2070   10.9810   23.2570 H   0  0  0  0  0  0  0  0  0  0  0  0
   22.3540   11.4170   22.5410 H   0  0  0  0  0  0  0  0  0  0  0  0
   23.9420    8.8710   22.1270 H   0  0  0  0  0  0  0  0  0  0  0  0
   22.4880    9.3880   21.2870 H   0  0  0  0  0  0  0  0  0  0  0  0
   25.8180    8.8770   20.7490 H   0  0  0  0  0  0  0  0  0  0  0  0
   27.2460    9.9520   19.0680 H   0  0  0  0  0  0  0  0  0  0  0  0
   26.5430   12.0690   18.0000 H   0  0  0  0  0  0  0  0  0  0  0  0
   24.3740   13.0920   18.5990 H   0  0  0  0  0  0  0  0  0  0  0  0
   22.9160   12.0250   20.2610 H   0  0  0  0  0  0  0  0  0  0  0  0
   23.3060    9.3560   24.6280 H   0  0  0  0  0  0  0  0  0  0  0  0
   21.7450    8.4240   23.2390 H   0  0  0  0  0  0  0  0  0  0  0  0
   21.4450   11.7790   24.6070 H   0  0  0  0  0  0  0  0  0  0  0  0
   22.7560   11.4560   25.7860 H   0  0  0  0  0  0  0  0  0  0  0  0
   21.4480    9.9820   26.9030 H   0  0  0  0  0  0  0  0  0  0  0  0
   20.7590    9.4490   25.4960 H   0  0  0  0  0  0  0  0  0  0  0  0
   19.2650   10.4770   27.2030 H   0  0  0  0  0  0  0  0  0  0  0  0
   19.2620   11.1580   24.2290 H   0  0  0  0  0  0  0  0  0  0  0  0
   18.4950    9.7960   25.0260 H   0  0  0  0  0  0  0  0  0  0  0  0
   16.8960   11.5810   24.3450 H   0  0  0  0  0  0  0  0  0  0  0  0
   16.8520   11.2540   26.0750 H   0  0  0  0  0  0  0  0  0  0  0  0
   16.8370   13.6810   25.6670 H   0  0  0  0  0  0  0  0  0  0  0  0
   18.3140   13.5700   24.7100 H   0  0  0  0  0  0  0  0  0  0  0  0
   18.0170   12.8890   27.6780 H   0  0  0  0  0  0  0  0  0  0  0  0
   18.8160   14.3080   27.0150 H   0  0  0  0  0  0  0  0  0  0  0  0
   20.4270   12.5300   27.7000 H   0  0  0  0  0  0  0  0  0  0  0  0
   20.5440   13.0010   26.0180 H   0  0  0  0  0  0  0  0  0  0  0  0
  1  2  1  0  0  0  0
  1 41  1  0  0  0  0
  1 42  1  0  0  0  0
  1 43  1  0  0  0  0
  2  3  1  0  0  0  0
  2 44  1  0  0  0  0
  2 45  1  0  0  0  0
  3  4  1  0  0  0  0
  3 16  1  0  0  0  0
  4  5  1  0  0  0  0
  4 19  2  0  0  0  0
  5  6  2  0  0  0  0
  5 46  1  0  0  0  0
  6  7  1  0  0  0  0
  6 20  1  0  0  0  0
  7  8  2  0  0  0  0
  7 47  1  0  0  0  0
  8  9  1  0  0  0  0
  8 19  1  0  0  0  0
  9 10  1  0  0  0  0
  9 12  2  0  0  0  0
 10 11  1  0  0  0  0
 10 48  1  0  0  0  0
 10 49  1  0  0  0  0
 11 50  1  0  0  0  0
 11 51  1  0  0  0  0
 11 52  1  0  0  0  0
 12 13  1  0  0  0  0
 12 53  1  0  0  0  0
 13 14  1  0  0  0  0
 13 19  1  0  0  0  0
 14 15  1  0  0  0  0
 14 54  1  0  0  0  0
 14 55  1  0  0  0  0
 15 16  1  0  0  0  0
 15 56  1  0  0  0  0
 15 57  1  0  0  0  0
 16 17  2  0  0  0  0
 16 18  2  0  0  0  0
 20 21  2  0  0  0  0
 20 22  1  0  0  0  0
 22 23  1  0  0  0  0
 22 58  1  0  0  0  0
 23 24  1  0  0  0  0
 23 31  1  0  0  0  0
 23 59  1  0  0  0  0
 24 25  1  0  0  0  0
 24 60  1  0  0  0  0
 24 61  1  0  0  0  0
 25 26  1  0  0  0  0
 25 30  2  0  0  0  0
 26 27  2  0  0  0  0
 26 62  1  0  0  0  0
 27 28  1  0  0  0  0
 27 63  1  0  0  0  0
 28 29  2  0  0  0  0
 28 64  1  0  0  0  0
 29 30  1  0  0  0  0
 29 65  1  0  0  0  0
 30 66  1  0  0  0  0
 31 32  1  0  0  0  0
 31 33  1  0  0  0  0
 31 67  1  0  0  0  0
 32 68  1  0  0  0  0
 33 34  1  0  0  0  0
 33 69  1  0  0  0  0
 33 70  1  0  0  0  0
 34 35  1  0  0  0  0
 34 71  1  0  0  0  0
 34 72  1  0  0  0  0
 35 36  1  0  0  0  0
 35 40  1  0  0  0  0
 35 73  1  0  0  0  0
 36 37  1  0  0  0  0
 36 74  1  0  0  0  0
 36 75  1  0  0  0  0
 37 38  1  0  0  0  0
 37 76  1  0  0  0  0
 37 77  1  0  0  0  0
 38 39  1  0  0  0  0
 38 78  1  0  0  0  0
 38 79  1  0  0  0  0
 39 40  1  0  0  0  0
 39 80  1  0  0  0  0
 39 81  1  0  0  0  0
 40 82  1  0  0  0  0
 40 83  1  0  0  0  0
M  CHG  1  34   1
M  END
>  <PARENT_CMPD_ID>
CHEMBL558582

>  <STANDARD_TYPE>
IC50

>  <RELATION>
=

>  <STANDARD_VALUE>
7

>  <STANDARD_UNITS>
nM

>  <COMPOUND_KEY>
38

>  <PUBMED_ID>
19477642

>  <JOURNAL>
Bioorg. Med. Chem. Lett.

>  <YEAR>
2009

>  <VOLUME>
19

>  <FIRST_PAGE>
3669

>  <Company>
GSK

>  <idx>
361

>  <Model>
Valid

>  <target>
8.1549015

>  <des_pred_mlr>
7.2135301

>  <RF_Canvas>
7.8872223

>  <DNN_Canvas>
7.7833686

>  <pred_CoMFA>
7.4116998

>  <pred_COMSIA>
6.9576001

>  <pred_abm5>
6.8508806

>  <pred_ff8>
5.5452728

>  <pred_gau6>
6.5289745

>  <CID>
BACE_361

>  <active>
1

>  <des_class_bayes>
1

>  <maacs_class_bayes>
1

>  <radial_class_bayes>
1

>  <dend_class_bayes>
1

>  <molprint_class_bayes>
1

>  <RF_canvas>
1

>  <DNN_canvas>
1

$$$$
CHEMBL1096683
  MOE2015           3D

 71 74  0  0  1  0  0  0  0  0999 V2000
   30.1160    9.3300   23.0510 C   0  0  0  0  0  0  0  0  0  0  0  0
   30.5890   10.3950   22.2760 C   0  0  0  0  0  0  0  0  0  0  0  0
   31.9570   10.6890   22.3010 C   0  0  0  0  0  0  0  0  0  0  0  0
   32.8330    9.9270   23.0620 C   0  0  0  0  0  0  0  0  0  0  0  0
   32.3420    8.8750   23.8090 C   0  0  0  0  0  0  0  0  0  0  0  0
   30.9930    8.5720   23.8170 C   0  0  0  0  0  0  0  0  0  0  0  0
   29.6700   11.2150   21.3950 C   0  0  3  0  0  0  0  0  0  0  0  0
   28.6840   11.9390   22.1810 N   0  0  0  0  0  0  0  0  0  0  0  0
   28.7270   13.3090   22.3390 C   0  0  0  0  0  0  0  0  0  0  0  0
   27.6700   13.8980   23.2010 C   0  0  0  0  0  0  0  0  0  0  0  0
   26.3840   13.3700   23.2290 C   0  0  0  0  0  0  0  0  0  0  0  0
   25.4070   13.9070   24.0720 C   0  0  0  0  0  0  0  0  0  0  0  0
   25.7350   15.0010   24.8720 C   0  0  0  0  0  0  0  0  0  0  0  0
   27.0190   15.5490   24.8400 C   0  0  0  0  0  0  0  0  0  0  0  0
   27.9770   15.0020   23.9900 C   0  0  0  0  0  0  0  0  0  0  0  0
   27.3410   16.6560   25.6860 N   0  0  0  0  0  0  0  0  0  0  0  0
   28.6630   16.5810   26.7400 S   0  0  0  0  0  0  0  0  0  0  0  0
   29.8420   17.6060   25.8920 C   0  0  0  0  0  0  0  0  0  0  0  0
   26.4360   17.8050   25.7680 C   0  0  0  0  0  0  0  0  0  0  0  0
   29.5790   14.0260   21.8300 O   0  0  0  0  0  0  0  0  0  0  0  0
   29.1840   15.2320   26.7730 O   0  0  0  0  0  0  0  0  0  0  0  0
   28.3060   17.2580   27.9670 O   0  0  0  0  0  0  0  0  0  0  0  0
   28.9760   10.3410   20.3560 C   0  0  0  0  0  0  0  0  0  0  0  0
   33.1840    8.1380   24.5330 F   0  0  0  0  0  0  0  0  0  0  0  0
   22.3680   10.2830   23.4450 C   0  0  3  0  0  0  0  0  0  0  0  0
   23.4940    9.3840   23.8600 N   0  3  0  0  0  0  0  0  0  0  0  0
   21.1260    9.7820   24.1850 C   0  0  0  0  0  0  0  0  0  0  0  0
   22.1350   10.1740   21.9170 C   0  0  0  0  0  0  0  0  0  0  0  0
   25.3010   11.7140   19.4500 C   0  0  0  0  0  0  0  0  0  0  0  0
   24.2890   12.5540   19.8820 C   0  0  0  0  0  0  0  0  0  0  0  0
   23.2580   12.0490   20.6640 C   0  0  0  0  0  0  0  0  0  0  0  0
   23.2380   10.7010   21.0370 C   0  0  0  0  0  0  0  0  0  0  0  0
   24.2540    9.8630   20.5830 C   0  0  0  0  0  0  0  0  0  0  0  0
   25.2780   10.3690   19.7920 C   0  0  0  0  0  0  0  0  0  0  0  0
   22.0300   12.7860   24.2450 C   0  0  0  0  0  0  0  0  0  0  0  0
   20.9670   12.9130   24.4030 H   0  0  0  0  0  0  0  0  0  0  0  0
   22.9030   13.8200   24.4210 N   0  0  0  0  0  0  0  0  0  0  0  0
   24.0790   13.3130   24.1160 C   0  0  0  0  0  0  0  0  0  0  0  0
   24.0350   11.9910   23.7850 O   0  0  0  0  0  0  0  0  0  0  0  0
   22.7120   11.6670   23.8430 C   0  0  0  0  0  0  0  0  0  0  0  0
   29.0610    9.0710   23.0540 H   0  0  0  0  0  0  0  0  0  0  0  0
   32.3530   11.5170   21.7160 H   0  0  0  0  0  0  0  0  0  0  0  0
   33.8970   10.1430   23.0690 H   0  0  0  0  0  0  0  0  0  0  0  0
   30.6350    7.7360   24.4100 H   0  0  0  0  0  0  0  0  0  0  0  0
   30.2730   11.9450   20.8410 H   0  0  0  0  0  0  0  0  0  0  0  0
   27.9770   11.3940   22.6510 H   0  0  0  0  0  0  0  0  0  0  0  0
   26.1260   12.5450   22.5690 H   0  0  0  0  0  0  0  0  0  0  0  0
   24.9860   15.4140   25.5440 H   0  0  0  0  0  0  0  0  0  0  0  0
   28.9810   15.4170   23.9460 H   0  0  0  0  0  0  0  0  0  0  0  0
   30.0760   17.1730   24.9200 H   0  0  0  0  0  0  0  0  0  0  0  0
   30.7480   17.6450   26.5010 H   0  0  0  0  0  0  0  0  0  0  0  0
   29.4320   18.6110   25.7830 H   0  0  0  0  0  0  0  0  0  0  0  0
   25.9700   18.0030   24.7970 H   0  0  0  0  0  0  0  0  0  0  0  0
   26.9770   18.7140   26.0470 H   0  0  0  0  0  0  0  0  0  0  0  0
   25.6530   17.6220   26.5090 H   0  0  0  0  0  0  0  0  0  0  0  0
   28.2800    9.6290   20.8130 H   0  0  0  0  0  0  0  0  0  0  0  0
   29.7030    9.7700   19.7670 H   0  0  0  0  0  0  0  0  0  0  0  0
   28.3990   10.9620   19.6620 H   0  0  0  0  0  0  0  0  0  0  0  0
   23.3760    8.4210   23.5300 H   0  0  0  0  0  0  0  0  0  0  0  0
   23.6010    9.3570   24.8820 H   0  0  0  0  0  0  0  0  0  0  0  0
   24.3760    9.7440   23.4730 H   0  0  0  0  0  0  0  0  0  0  0  0
   20.9050    8.7370   23.9330 H   0  0  0  0  0  0  0  0  0  0  0  0
   20.2390   10.3740   23.9280 H   0  0  0  0  0  0  0  0  0  0  0  0
   21.2500    9.8410   25.2730 H   0  0  0  0  0  0  0  0  0  0  0  0
   21.2110   10.7080   21.6510 H   0  0  0  0  0  0  0  0  0  0  0  0
   21.9390    9.1270   21.6460 H   0  0  0  0  0  0  0  0  0  0  0  0
   26.1000   12.1030   18.8250 H   0  0  0  0  0  0  0  0  0  0  0  0
   24.2920   13.6030   19.5960 H   0  0  0  0  0  0  0  0  0  0  0  0
   22.4660   12.7250   20.9790 H   0  0  0  0  0  0  0  0  0  0  0  0
   24.2500    8.8010   20.8140 H   0  0  0  0  0  0  0  0  0  0  0  0
   26.0590    9.7070   19.4260 H   0  0  0  0  0  0  0  0  0  0  0  0
  1  2  1  0  0  0  0
  1  6  2  0  0  0  0
  1 41  1  0  0  0  0
  2  3  2  0  0  0  0
  2  7  1  0  0  0  0
  3  4  1  0  0  0  0
  3 42  1  0  0  0  0
  4  5  2  0  0  0  0
  4 43  1  0  0  0  0
  5  6  1  0  0  0  0
  5 24  1  0  0  0  0
  6 44  1  0  0  0  0
  7  8  1  0  0  0  0
  7 23  1  0  0  0  0
  7 45  1  0  0  0  0
  8  9  1  0  0  0  0
  8 46  1  0  0  0  0
  9 10  1  0  0  0  0
  9 20  2  0  0  0  0
 10 11  1  0  0  0  0
 10 15  2  0  0  0  0
 11 12  2  0  0  0  0
 11 47  1  0  0  0  0
 12 13  1  0  0  0  0
 12 38  1  0  0  0  0
 13 14  2  0  0  0  0
 13 48  1  0  0  0  0
 14 15  1  0  0  0  0
 14 16  1  0  0  0  0
 15 49  1  0  0  0  0
 16 17  1  0  0  0  0
 16 19  1  0  0  0  0
 17 18  1  0  0  0  0
 17 21  2  0  0  0  0
 17 22  2  0  0  0  0
 18 50  1  0  0  0  0
 18 51  1  0  0  0  0
 18 52  1  0  0  0  0
 19 53  1  0  0  0  0
 19 54  1  0  0  0  0
 19 55  1  0  0  0  0
 23 56  1  0  0  0  0
 23 57  1  0  0  0  0
 23 58  1  0  0  0  0
 25 26  1  0  0  0  0
 25 27  1  0  0  0  0
 25 28  1  0  0  0  0
 25 40  1  0  0  0  0
 26 59  1  0  0  0  0
 26 60  1  0  0  0  0
 26 61  1  0  0  0  0
 27 62  1  0  0  0  0
 27 63  1  0  0  0  0
 27 64  1  0  0  0  0
 28 32  1  0  0  0  0
 28 65  1  0  0  0  0
 28 66  1  0  0  0  0
 29 30  1  0  0  0  0
 29 34  2  0  0  0  0
 29 67  1  0  0  0  0
 30 31  2  0  0  0  0
 30 68  1  0  0  0  0
 31 32  1  0  0  0  0
 31 69  1  0  0  0  0
 32 33  2  0  0  0  0
 33 34  1  0  0  0  0
 33 70  1  0  0  0  0
 34 71  1  0  0  0  0
 35 36  1  0  0  0  0
 35 37  1  0  0  0  0
 35 40  2  0  0  0  0
 37 38  2  0  0  0  0
 38 39  1  0  0  0  0
 39 40  1  0  0  0  0
M  CHG  1  26   1
M  END
>  <PARENT_CMPD_ID>
CHEMBL1096683

>  <STANDARD_TYPE>
IC50

>  <RELATION>
=

>  <STANDARD_VALUE>
7

>  <STANDARD_UNITS>
nM

>  <COMPOUND_KEY>
27

>  <PUBMED_ID>
20176482

>  <JOURNAL>
Bioorg. Med. Chem. Lett.

>  <YEAR>
2010

>  <VOLUME>
20

>  <FIRST_PAGE>
1885

>  <Company>
Merck

>  <idx>
362

>  <Model>
Valid

>  <target>
8.1549015

>  <des_pred_mlr>
7.2361498

>  <RF_Canvas>
7.7677779

>  <DNN_Canvas>
7.6720004

>  <pred_CoMFA>
7.3564

>  <pred_COMSIA>
6.7318001

>  <pred_abm5>
7.1942482

>  <pred_ff8>
7.2318082

>  <pred_gau6>
7.2239189

>  <CID>
BACE_362

>  <active>
1

>  <des_class_bayes>
1

>  <maacs_class_bayes>
1

>  <radial_class_bayes>
1

>  <dend_class_bayes>
1

>  <molprint_class_bayes>
1

>  <RF_canvas>
1

>  <DNN_canvas>
1

$$$$
22380629_62i
  MOE2015           3D
HYDROLASE/HYDROLASE INHIBITOR
 71 73  0  0  1  0  0  0  0  0999 V2000
   29.9730   10.1430   19.6650 F   0  0  0  0  0  0  0  0  0  0  0  0
   29.2460   10.2040   20.7900 C   0  0  0  0  0  0  0  0  0  0  0  0
   28.4640    9.1070   20.8240 F   0  0  0  0  0  0  0  0  0  0  0  0
   30.0910   10.1070   21.8290 F   0  0  0  0  0  0  0  0  0  0  0  0
   28.4040   11.4460   20.8660 C   0  0  0  0  0  0  0  0  0  0  0  0
   27.8360   11.4680   21.8020 H   0  0  0  0  0  0  0  0  0  0  0  0
   27.5690   11.5250   19.7050 O   0  0  0  0  0  0  0  0  0  0  0  0
   26.2140   11.4780   19.8940 C   0  0  0  0  0  0  0  0  0  0  0  0
   25.4510   12.2390   19.0020 C   0  0  0  0  0  0  0  0  0  0  0  0
   24.0650   12.2070   19.1340 C   0  0  0  0  0  0  0  0  0  0  0  0
   23.4390   11.4540   20.1200 C   0  0  0  0  0  0  0  0  0  0  0  0
   22.3560   11.4810   20.1870 H   0  0  0  0  0  0  0  0  0  0  0  0
   24.1980   10.6930   21.0050 C   0  0  0  0  0  0  0  0  0  0  0  0
   25.5880   10.6890   20.8630 C   0  0  0  0  0  0  0  0  0  0  0  0
   26.1780   10.0540   21.5190 H   0  0  0  0  0  0  0  0  0  0  0  0
   23.5490    9.9340   22.1370 C   0  0  0  0  0  0  0  0  0  0  0  0
   24.2760    9.2540   22.5990 H   0  0  0  0  0  0  0  0  0  0  0  0
   22.7670    9.2930   21.7120 H   0  0  0  0  0  0  0  0  0  0  0  0
   22.9560   10.8630   23.2100 C   0  0  3  0  0  0  0  0  0  0  0  0
   22.1610   11.4430   22.7190 H   0  0  0  0  0  0  0  0  0  0  0  0
   22.2930   10.0790   24.3690 C   0  0  3  0  0  0  0  0  0  0  0  0
   23.0460    9.4450   24.8540 H   0  0  0  0  0  0  0  0  0  0  0  0
   21.6270   10.9920   25.4250 C   0  0  3  0  0  0  0  0  0  0  0  0
   20.7730   11.4820   24.9440 H   0  0  0  0  0  0  0  0  0  0  0  0
   22.5530   12.0070   26.0550 C   0  0  0  0  0  0  0  0  0  0  0  0
   23.3790   11.5280   26.5920 H   0  0  0  0  0  0  0  0  0  0  0  0
   22.0310   12.6710   26.7490 H   0  0  0  0  0  0  0  0  0  0  0  0
   23.2550   13.0440   24.8100 S   0  0  0  0  0  0  0  0  0  0  0  0
   24.0080   11.8330   23.7560 C   0  0  0  0  0  0  0  0  0  0  0  0
   24.4950   12.4120   22.9670 H   0  0  0  0  0  0  0  0  0  0  0  0
   24.7820   11.3160   24.3320 H   0  0  0  0  0  0  0  0  0  0  0  0
   24.2900   13.8360   25.4310 O   0  0  0  0  0  0  0  0  0  0  0  0
   22.1850   13.6650   24.0600 O   0  0  0  0  0  0  0  0  0  0  0  0
   21.0510   10.0810   26.5000 N   0  3  0  0  0  0  0  0  0  0  0  0
   21.8000    9.5940   27.0120 H   0  0  0  0  0  0  0  0  0  0  0  0
   20.5560    9.3310   25.9850 H   0  0  0  0  0  0  0  0  0  0  0  0
   20.1170   10.7220   27.4850 C   0  0  0  0  0  0  0  0  0  0  0  0
   20.7130   11.3930   28.1110 H   0  0  0  0  0  0  0  0  0  0  0  0
   19.7540    9.9100   28.1240 H   0  0  0  0  0  0  0  0  0  0  0  0
   18.9960   11.4070   26.8250 C   0  0  0  0  0  0  0  0  0  0  0  0
   17.9450   10.7910   26.1340 C   0  0  0  0  0  0  0  0  0  0  0  0
   17.7560    9.7330   26.0460 H   0  0  0  0  0  0  0  0  0  0  0  0
   17.2640   11.8210   25.5560 C   0  0  0  0  0  0  0  0  0  0  0  0
   16.0870   11.9360   24.6800 C   0  0  0  0  0  0  0  0  0  0  0  0
   16.3370   12.6490   23.8820 H   0  0  0  0  0  0  0  0  0  0  0  0
   15.2860   12.4100   25.2630 H   0  0  0  0  0  0  0  0  0  0  0  0
   15.5430   10.6410   24.0360 C   0  0  0  0  0  0  0  0  0  0  0  0
   14.3630   11.0630   23.1460 C   0  0  0  0  0  0  0  0  0  0  0  0
   13.5730   11.5480   23.7320 H   0  0  0  0  0  0  0  0  0  0  0  0
   13.9130   10.2010   22.6400 H   0  0  0  0  0  0  0  0  0  0  0  0
   14.6800   11.7680   22.3680 H   0  0  0  0  0  0  0  0  0  0  0  0
   15.0010    9.6430   25.0610 C   0  0  0  0  0  0  0  0  0  0  0  0
   14.3100   10.1300   25.7590 H   0  0  0  0  0  0  0  0  0  0  0  0
   15.7810    9.1600   25.6520 H   0  0  0  0  0  0  0  0  0  0  0  0
   14.4480    8.8350   24.5680 H   0  0  0  0  0  0  0  0  0  0  0  0
   16.5780    9.9530   23.1440 C   0  0  0  0  0  0  0  0  0  0  0  0
   16.9890   10.6510   22.4050 H   0  0  0  0  0  0  0  0  0  0  0  0
   16.1320    9.1180   22.5920 H   0  0  0  0  0  0  0  0  0  0  0  0
   17.4180    9.5430   23.7130 H   0  0  0  0  0  0  0  0  0  0  0  0
   17.8510   12.9960   25.9150 O   0  0  0  0  0  0  0  0  0  0  0  0
   18.9660   12.7360   26.6950 N   0  0  0  0  0  0  0  0  0  0  0  0
   21.2690    9.2060   23.8780 O   0  0  0  0  0  0  0  0  0  0  0  0
   20.7170    9.6710   23.2210 H   0  0  0  0  0  0  0  0  0  0  0  0
   23.3100   12.9280   18.3000 F   0  0  0  0  0  0  0  0  0  0  0  0
   26.0640   13.0100   18.0240 N   0  0  0  0  0  0  0  0  0  0  0  0
   25.5050   13.5670   17.3900 H   0  0  0  0  0  0  0  0  0  0  0  0
   27.0730   13.0040   17.9470 H   0  0  0  0  0  0  0  0  0  0  0  0
   29.3330   12.6260   20.8700 C   0  0  0  0  0  0  0  0  0  0  0  0
   30.1300   12.6610   19.7870 F   0  0  0  0  0  0  0  0  0  0  0  0
   30.1210   12.6190   21.9640 F   0  0  0  0  0  0  0  0  0  0  0  0
   28.6340   13.7860   20.8990 F   0  0  0  0  0  0  0  0  0  0  0  0
  1  2  1  0  0  0  0
  2  3  1  0  0  0  0
  2  4  1  0  0  0  0
  2  5  1  0  0  0  0
  5  6  1  0  0  0  0
  5  7  1  0  0  0  0
  5 68  1  0  0  0  0
  7  8  1  0  0  0  0
  8  9  1  0  0  0  0
  8 14  2  0  0  0  0
  9 10  2  0  0  0  0
  9 65  1  0  0  0  0
 10 11  1  0  0  0  0
 10 64  1  0  0  0  0
 11 12  1  0  0  0  0
 11 13  2  0  0  0  0
 13 14  1  0  0  0  0
 13 16  1  0  0  0  0
 14 15  1  0  0  0  0
 16 17  1  0  0  0  0
 16 18  1  0  0  0  0
 16 19  1  0  0  0  0
 19 20  1  0  0  0  0
 19 21  1  0  0  0  0
 19 29  1  0  0  0  0
 21 22  1  0  0  0  0
 21 23  1  0  0  0  0
 21 62  1  0  0  0  0
 23 24  1  0  0  0  0
 23 25  1  0  0  0  0
 23 34  1  0  0  0  0
 25 26  1  0  0  0  0
 25 27  1  0  0  0  0
 25 28  1  0  0  0  0
 28 29  1  0  0  0  0
 28 32  2  0  0  0  0
 28 33  2  0  0  0  0
 29 30  1  0  0  0  0
 29 31  1  0  0  0  0
 34 35  1  0  0  0  0
 34 36  1  0  0  0  0
 34 37  1  0  0  0  0
 37 38  1  0  0  0  0
 37 39  1  0  0  0  0
 37 40  1  0  0  0  0
 40 41  1  0  0  0  0
 40 61  2  0  0  0  0
 41 42  1  0  0  0  0
 41 43  2  0  0  0  0
 43 44  1  0  0  0  0
 43 60  1  0  0  0  0
 44 45  1  0  0  0  0
 44 46  1  0  0  0  0
 44 47  1  0  0  0  0
 47 48  1  0  0  0  0
 47 52  1  0  0  0  0
 47 56  1  0  0  0  0
 48 49  1  0  0  0  0
 48 50  1  0  0  0  0
 48 51  1  0  0  0  0
 52 53  1  0  0  0  0
 52 54  1  0  0  0  0
 52 55  1  0  0  0  0
 56 57  1  0  0  0  0
 56 58  1  0  0  0  0
 56 59  1  0  0  0  0
 60 61  1  0  0  0  0
 62 63  1  0  0  0  0
 65 66  1  0  0  0  0
 65 67  1  0  0  0  0
 68 69  1  0  0  0  0
 68 70  1  0  0  0  0
 68 71  1  0  0  0  0
M  CHG  1  34   1
M  END
>  <PARENT_CMPD_ID>
22380629_62i

>  <STANDARD_TYPE>
IC50

>  <RELATION>
=

>  <STANDARD_VALUE>
7

>  <STANDARD_UNITS>
nM

>  <COMPOUND_KEY>
62i

>  <PUBMED_ID>
22380629

>  <JOURNAL>
J.Med.Chem.

>  <YEAR>
2012

>  <VOLUME>
55

>  <FIRST_PAGE>
3364

>  <Company>
Novartis

>  <idx>
363

>  <Model>
Valid

>  <target>
8.1549015

>  <des_pred_mlr>
8.0630198

>  <RF_Canvas>
7.8106232

>  <DNN_Canvas>
8.5426245

>  <pred_CoMFA>
7.9555998

>  <pred_COMSIA>
7.1469002

>  <pred_abm5>
7.9676666

>  <pred_ff8>
8.0247707

>  <pred_gau6>
8.1109838

>  <CID>
BACE_363

>  <active>
1

>  <des_class_bayes>
0

>  <maacs_class_bayes>
1

>  <radial_class_bayes>
1

>  <dend_class_bayes>
1

>  <molprint_class_bayes>
1

>  <RF_canvas>
1

>  <DNN_canvas>
1

$$$$
23981898_11f
  MOE2015           3D

 72 74  0  0  1  0  0  0  0  0999 V2000
   28.6580    9.0220   20.9790 F   0  0  0  0  0  0  0  0  0  0  0  0
   29.2990   10.1980   20.8570 C   0  0  0  0  0  0  0  0  0  0  0  0
   30.0920   10.3310   21.9350 F   0  0  0  0  0  0  0  0  0  0  0  0
   30.0920   10.1280   19.7770 F   0  0  0  0  0  0  0  0  0  0  0  0
   28.3110   11.3430   20.7620 C   0  0  3  0  0  0  0  0  0  0  0  0
   27.5400   11.2050   19.5560 O   0  0  0  0  0  0  0  0  0  0  0  0
   26.1760   11.2200   19.7170 C   0  0  0  0  0  0  0  0  0  0  0  0
   25.4520   12.0310   18.8390 C   0  0  0  0  0  0  0  0  0  0  0  0
   24.0650   12.0680   18.9820 C   0  0  0  0  0  0  0  0  0  0  0  0
   23.4050   11.3270   19.9540 C   0  0  0  0  0  0  0  0  0  0  0  0
   24.1260   10.5120   20.8230 C   0  0  0  0  0  0  0  0  0  0  0  0
   25.5150   10.4390   20.6720 C   0  0  0  0  0  0  0  0  0  0  0  0
   23.4390    9.7840   21.9560 C   0  0  0  0  0  0  0  0  0  0  0  0
   22.8690   10.7440   23.0190 C   0  0  3  0  0  0  0  0  0  0  0  0
   22.1770   10.0060   24.1890 C   0  0  3  0  0  0  0  0  0  0  0  0
   21.5210   10.9790   25.1980 C   0  0  3  0  0  0  0  0  0  0  0  0
   22.5060   11.9620   25.8100 C   0  0  0  0  0  0  0  0  0  0  0  0
   23.2500   13.0150   24.5450 S   0  0  0  0  0  0  0  0  0  0  0  0
   23.9600   11.6640   23.5720 C   0  0  0  0  0  0  0  0  0  0  0  0
   22.1440   13.6110   23.7300 O   0  0  0  0  0  0  0  0  0  0  0  0
   20.8990   10.1290   26.2940 N   0  3  0  0  0  0  0  0  0  0  0  0
   19.8850   10.7810   27.1810 C   0  0  0  0  0  0  0  0  0  0  0  0
   18.7440   11.4340   26.4600 C   0  0  0  0  0  0  0  0  0  0  0  0
   17.8140   10.6640   25.7530 C   0  0  0  0  0  0  0  0  0  0  0  0
   16.7520   11.2410   25.0420 C   0  0  0  0  0  0  0  0  0  0  0  0
   16.6600   12.6340   25.0600 C   0  0  0  0  0  0  0  0  0  0  0  0
   17.5740   13.4130   25.7620 C   0  0  0  0  0  0  0  0  0  0  0  0
   18.6100   12.8180   26.4610 C   0  0  0  0  0  0  0  0  0  0  0  0
   15.7690   10.3590   24.2700 C   0  0  0  0  0  0  0  0  0  0  0  0
   15.2010    9.2620   25.1830 C   0  0  0  0  0  0  0  0  0  0  0  0
   14.5660   11.1210   23.6950 C   0  0  0  0  0  0  0  0  0  0  0  0
   16.5030    9.7030   23.0940 C   0  0  0  0  0  0  0  0  0  0  0  0
   21.1530    9.1200   23.7300 O   0  0  0  0  0  0  0  0  0  0  0  0
   23.3430   12.8450   18.1670 F   0  0  0  0  0  0  0  0  0  0  0  0
   26.0950   12.7890   17.8710 N   0  0  0  0  0  0  0  0  0  0  0  0
   29.0640   12.6710   20.7230 C   0  0  0  0  0  0  0  0  0  0  0  0
   28.1470   13.7510   20.6030 O   0  0  0  0  0  0  0  0  0  0  0  0
   27.5620   13.5640   19.8450 H   0  0  0  0  0  0  0  0  0  0  0  0
   27.6770   11.3520   21.6570 H   0  0  0  0  0  0  0  0  0  0  0  0
   22.3250   11.4120   20.0290 H   0  0  0  0  0  0  0  0  0  0  0  0
   26.0870    9.7750   21.3160 H   0  0  0  0  0  0  0  0  0  0  0  0
   24.1380    9.0830   22.4300 H   0  0  0  0  0  0  0  0  0  0  0  0
   22.6370    9.1690   21.5300 H   0  0  0  0  0  0  0  0  0  0  0  0
   22.1000   11.3470   22.5150 H   0  0  0  0  0  0  0  0  0  0  0  0
   22.9160    9.3830   24.7090 H   0  0  0  0  0  0  0  0  0  0  0  0
   20.6950   11.4930   24.6950 H   0  0  0  0  0  0  0  0  0  0  0  0
   23.3120   11.4470   26.3440 H   0  0  0  0  0  0  0  0  0  0  0  0
   22.0100   12.6300   26.5200 H   0  0  0  0  0  0  0  0  0  0  0  0
   24.5220   12.1630   22.7790 H   0  0  0  0  0  0  0  0  0  0  0  0
   24.6780   11.1190   24.1940 H   0  0  0  0  0  0  0  0  0  0  0  0
   21.6200    9.6740   26.8690 H   0  0  0  0  0  0  0  0  0  0  0  0
   20.4400    9.3510   25.7860 H   0  0  0  0  0  0  0  0  0  0  0  0
   20.4290   11.4920   27.8120 H   0  0  0  0  0  0  0  0  0  0  0  0
   19.5050    9.9930   27.8410 H   0  0  0  0  0  0  0  0  0  0  0  0
   17.9250    9.5810   25.7540 H   0  0  0  0  0  0  0  0  0  0  0  0
   15.8710   13.1570   24.5260 H   0  0  0  0  0  0  0  0  0  0  0  0
   17.4740   14.4960   25.7560 H   0  0  0  0  0  0  0  0  0  0  0  0
   19.3120   13.4530   26.9960 H   0  0  0  0  0  0  0  0  0  0  0  0
   14.7200    9.6940   26.0690 H   0  0  0  0  0  0  0  0  0  0  0  0
   15.9680    8.5640   25.5330 H   0  0  0  0  0  0  0  0  0  0  0  0
   14.4480    8.6600   24.6600 H   0  0  0  0  0  0  0  0  0  0  0  0
   13.9960   11.6300   24.4810 H   0  0  0  0  0  0  0  0  0  0  0  0
   13.8730   10.4440   23.1800 H   0  0  0  0  0  0  0  0  0  0  0  0
   14.8730   11.8730   22.9580 H   0  0  0  0  0  0  0  0  0  0  0  0
   17.3280    9.0620   23.4270 H   0  0  0  0  0  0  0  0  0  0  0  0
   16.9280   10.4560   22.4200 H   0  0  0  0  0  0  0  0  0  0  0  0
   15.8270    9.0740   22.5030 H   0  0  0  0  0  0  0  0  0  0  0  0
   20.6220    9.5650   23.0420 H   0  0  0  0  0  0  0  0  0  0  0  0
   25.5660   13.4440   17.3080 H   0  0  0  0  0  0  0  0  0  0  0  0
   27.0850   12.6610   17.7050 H   0  0  0  0  0  0  0  0  0  0  0  0
   29.7340   12.7190   19.8590 H   0  0  0  0  0  0  0  0  0  0  0  0
   29.6550   12.8240   21.6310 H   0  0  0  0  0  0  0  0  0  0  0  0
  1  2  1  0  0  0  0
  2  3  1  0  0  0  0
  2  4  1  0  0  0  0
  2  5  1  0  0  0  0
  5  6  1  0  0  0  0
  5 36  1  0  0  0  0
  5 39  1  0  0  0  0
  6  7  1  0  0  0  0
  7  8  1  0  0  0  0
  7 12  2  0  0  0  0
  8  9  2  0  0  0  0
  8 35  1  0  0  0  0
  9 10  1  0  0  0  0
  9 34  1  0  0  0  0
 10 11  2  0  0  0  0
 10 40  1  0  0  0  0
 11 12  1  0  0  0  0
 11 13  1  0  0  0  0
 12 41  1  0  0  0  0
 13 14  1  0  0  0  0
 13 42  1  0  0  0  0
 13 43  1  0  0  0  0
 14 15  1  0  0  0  0
 14 19  1  0  0  0  0
 14 44  1  0  0  0  0
 15 16  1  0  0  0  0
 15 33  1  0  0  0  0
 15 45  1  0  0  0  0
 16 17  1  0  0  0  0
 16 21  1  0  0  0  0
 16 46  1  0  0  0  0
 17 18  1  0  0  0  0
 17 47  1  0  0  0  0
 17 48  1  0  0  0  0
 18 19  1  0  0  0  0
 18 20  2  0  0  0  0
 19 49  1  0  0  0  0
 19 50  1  0  0  0  0
 21 22  1  0  0  0  0
 21 51  1  0  0  0  0
 21 52  1  0  0  0  0
 22 23  1  0  0  0  0
 22 53  1  0  0  0  0
 22 54  1  0  0  0  0
 23 24  1  0  0  0  0
 23 28  2  0  0  0  0
 24 25  2  0  0  0  0
 24 55  1  0  0  0  0
 25 26  1  0  0  0  0
 25 29  1  0  0  0  0
 26 27  2  0  0  0  0
 26 56  1  0  0  0  0
 27 28  1  0  0  0  0
 27 57  1  0  0  0  0
 28 58  1  0  0  0  0
 29 30  1  0  0  0  0
 29 31  1  0  0  0  0
 29 32  1  0  0  0  0
 30 59  1  0  0  0  0
 30 60  1  0  0  0  0
 30 61  1  0  0  0  0
 31 62  1  0  0  0  0
 31 63  1  0  0  0  0
 31 64  1  0  0  0  0
 32 65  1  0  0  0  0
 32 66  1  0  0  0  0
 32 67  1  0  0  0  0
 33 68  1  0  0  0  0
 35 69  1  0  0  0  0
 35 70  1  0  0  0  0
 36 37  1  0  0  0  0
 36 71  1  0  0  0  0
 36 72  1  0  0  0  0
 37 38  1  0  0  0  0
M  CHG  1  21   1
M  END
>  <PARENT_CMPD_ID>
23981898_11f

>  <STANDARD_TYPE>
IC50

>  <RELATION>
=

>  <STANDARD_VALUE>
0.0070000002

>  <STANDARD_UNITS>
uM

>  <COMPOUND_KEY>
11f

>  <PUBMED_ID>
23981898

>  <JOURNAL>
Bioorg.Med.Chem.Lett.

>  <YEAR>
2013

>  <VOLUME>
23

>  <FIRST_PAGE>
5300

>  <Company>
Novartis

>  <idx>
364

>  <Model>
Valid

>  <target>
8.1549015

>  <des_pred_mlr>
7.0886302

>  <RF_Canvas>
7.7179842

>  <DNN_Canvas>
7.9682732

>  <pred_CoMFA>
8.4133997

>  <pred_COMSIA>
7.2944999

>  <pred_abm5>
7.8668222

>  <pred_ff8>
7.8909879

>  <pred_gau6>
7.8373413

>  <CID>
BACE_364

>  <active>
1

>  <des_class_bayes>
0

>  <maacs_class_bayes>
1

>  <radial_class_bayes>
1

>  <dend_class_bayes>
1

>  <molprint_class_bayes>
1

>  <RF_canvas>
1

>  <DNN_canvas>
1

$$$$
22468684_38
  MOE2015           3D

 87 91  0  0  1  0  0  0  0  0999 V2000
   20.7590   13.8980   29.6180 C   0  0  0  0  0  0  0  0  0  0  0  0
   20.1210   13.0240   30.6920 C   0  0  0  0  0  0  0  0  0  0  0  0
   19.1120   12.5510   29.6490 C   0  0  0  0  0  0  0  0  0  0  0  0
   20.0900   13.0120   28.5420 C   0  0  0  0  0  0  0  0  0  0  0  0
   21.0190   11.9640   27.9520 C   0  0  0  0  0  0  0  0  0  0  0  0
   19.4990   13.7750   27.4780 O   0  0  0  0  0  0  0  0  0  0  0  0
   18.8620   13.0690   26.4940 C   0  0  0  0  0  0  0  0  0  0  0  0
   17.9690   13.7860   25.7950 N   0  0  0  0  0  0  0  0  0  0  0  0
   17.3270   13.1500   24.8020 C   0  0  0  0  0  0  0  0  0  0  0  0
   17.5110   11.8130   24.4840 C   0  0  0  0  0  0  0  0  0  0  0  0
   16.7140   11.1690   23.3900 C   0  0  0  0  0  0  0  0  0  0  0  0
   15.3830   10.5170   23.8190 C   0  0  0  0  0  0  0  0  0  0  0  0
   14.4810   11.4940   24.5730 C   0  0  0  0  0  0  0  0  0  0  0  0
   15.6250    9.2840   24.6910 C   0  0  0  0  0  0  0  0  0  0  0  0
   14.6480   10.0720   22.5510 C   0  0  0  0  0  0  0  0  0  0  0  0
   18.4460   11.1050   25.2280 C   0  0  0  0  0  0  0  0  0  0  0  0
   19.1670   11.7400   26.2400 C   0  0  0  0  0  0  0  0  0  0  0  0
   20.2180   11.0280   27.0400 C   0  0  3  0  0  0  0  0  0  0  0  0
   21.1920   10.2200   26.2120 N   0  3  0  0  0  0  0  0  0  0  0  0
   21.9180   10.9700   25.1280 C   0  0  0  0  0  0  0  0  0  0  0  0
   22.3460    9.9860   24.0420 C   0  0  3  0  0  0  0  0  0  0  0  0
   21.1990    9.2250   23.6540 O   0  0  0  0  0  0  0  0  0  0  0  0
   22.9790   10.6970   22.8260 C   0  0  3  0  0  0  0  0  0  0  0  0
   24.0120   11.6220   23.2650 N   0  0  0  0  0  0  0  0  0  0  0  0
   23.7890   12.9790   23.3960 C   0  0  0  0  0  0  0  0  0  0  0  0
   22.7170   13.5080   23.1330 O   0  0  0  0  0  0  0  0  0  0  0  0
   24.9720   13.6880   24.0530 C   0  0  2  0  0  0  0  0  0  0  0  0
   24.7770   15.1840   24.1850 C   0  0  0  0  0  0  0  0  0  0  0  0
   26.2020   13.2970   23.4600 O   0  0  0  0  0  0  0  0  0  0  0  0
   26.4880   13.8940   22.2060 C   0  0  0  0  0  0  0  0  0  0  0  0
   23.5060    9.6640   21.8110 C   0  0  0  0  0  0  0  0  0  0  0  0
   24.3350   10.2720   20.7160 C   0  0  0  0  0  0  0  0  0  0  0  0
   25.7220   10.3150   20.8610 C   0  0  0  0  0  0  0  0  0  0  0  0
   23.7550   10.8410   19.5900 C   0  0  0  0  0  0  0  0  0  0  0  0
   24.5540   11.4420   18.6280 C   0  0  0  0  0  0  0  0  0  0  0  0
   25.9340   11.4930   18.7930 C   0  0  0  0  0  0  0  0  0  0  0  0
   26.5400   10.9290   19.9140 C   0  0  0  0  0  0  0  0  0  0  0  0
   27.9890   11.0480   20.1080 C   0  0  0  0  0  0  0  0  0  0  0  0
   28.7180   12.0440   19.6480 N   0  0  0  0  0  0  0  0  0  0  0  0
   30.0290   11.8880   20.0340 C   0  0  0  0  0  0  0  0  0  0  0  0
   30.3020   10.7690   20.7830 C   0  0  0  0  0  0  0  0  0  0  0  0
   28.8750    9.8700   21.0020 S   0  0  0  0  0  0  0  0  0  0  0  0
   21.8530   13.9160   29.6240 H   0  0  0  0  0  0  0  0  0  0  0  0
   20.3990   14.9340   29.6260 H   0  0  0  0  0  0  0  0  0  0  0  0
   19.7010   13.5560   31.5500 H   0  0  0  0  0  0  0  0  0  0  0  0
   20.7790   12.2280   31.0600 H   0  0  0  0  0  0  0  0  0  0  0  0
   18.1690   13.1090   29.6680 H   0  0  0  0  0  0  0  0  0  0  0  0
   18.8800   11.4830   29.6860 H   0  0  0  0  0  0  0  0  0  0  0  0
   21.5230   11.3790   28.7320 H   0  0  0  0  0  0  0  0  0  0  0  0
   21.8090   12.4800   27.3930 H   0  0  0  0  0  0  0  0  0  0  0  0
   16.6170   13.7680   24.2580 H   0  0  0  0  0  0  0  0  0  0  0  0
   17.3480   10.4250   22.8870 H   0  0  0  0  0  0  0  0  0  0  0  0
   16.5180   11.9300   22.6210 H   0  0  0  0  0  0  0  0  0  0  0  0
   14.8970   11.7710   25.5480 H   0  0  0  0  0  0  0  0  0  0  0  0
   13.4960   11.0530   24.7660 H   0  0  0  0  0  0  0  0  0  0  0  0
   14.3190   12.4120   23.9980 H   0  0  0  0  0  0  0  0  0  0  0  0
   16.0620    9.5470   25.6590 H   0  0  0  0  0  0  0  0  0  0  0  0
   16.2990    8.5740   24.1990 H   0  0  0  0  0  0  0  0  0  0  0  0
   14.6870    8.7560   24.8980 H   0  0  0  0  0  0  0  0  0  0  0  0
   14.4250   10.9240   21.8980 H   0  0  0  0  0  0  0  0  0  0  0  0
   13.6960    9.5830   22.7880 H   0  0  0  0  0  0  0  0  0  0  0  0
   15.2470    9.3590   21.9730 H   0  0  0  0  0  0  0  0  0  0  0  0
   18.6050   10.0530   25.0060 H   0  0  0  0  0  0  0  0  0  0  0  0
   19.7040   10.2870   27.6670 H   0  0  0  0  0  0  0  0  0  0  0  0
   20.6810    9.4660   25.7200 H   0  0  0  0  0  0  0  0  0  0  0  0
   21.8620    9.7320   26.8200 H   0  0  0  0  0  0  0  0  0  0  0  0
   22.7690   11.4650   25.6040 H   0  0  0  0  0  0  0  0  0  0  0  0
   21.2350   11.7140   24.7120 H   0  0  0  0  0  0  0  0  0  0  0  0
   23.0660    9.2810   24.4760 H   0  0  0  0  0  0  0  0  0  0  0  0
   20.7840    9.6380   22.8730 H   0  0  0  0  0  0  0  0  0  0  0  0
   22.1980   11.2780   22.3160 H   0  0  0  0  0  0  0  0  0  0  0  0
   24.9530   11.2890   23.4730 H   0  0  0  0  0  0  0  0  0  0  0  0
   25.0100   13.2870   25.0750 H   0  0  0  0  0  0  0  0  0  0  0  0
   24.6010   15.6540   23.2110 H   0  0  0  0  0  0  0  0  0  0  0  0
   25.6630   15.6560   24.6220 H   0  0  0  0  0  0  0  0  0  0  0  0
   23.9110   15.4140   24.8150 H   0  0  0  0  0  0  0  0  0  0  0  0
   27.4050   13.4450   21.8190 H   0  0  0  0  0  0  0  0  0  0  0  0
   26.6700   14.9670   22.3160 H   0  0  0  0  0  0  0  0  0  0  0  0
   25.6810   13.7180   21.4900 H   0  0  0  0  0  0  0  0  0  0  0  0
   22.6690    9.1110   21.3660 H   0  0  0  0  0  0  0  0  0  0  0  0
   24.1090    8.9070   22.3310 H   0  0  0  0  0  0  0  0  0  0  0  0
   26.1600    9.8850   21.7590 H   0  0  0  0  0  0  0  0  0  0  0  0
   22.6760   10.8300   19.4570 H   0  0  0  0  0  0  0  0  0  0  0  0
   24.0980   11.8920   17.7500 H   0  0  0  0  0  0  0  0  0  0  0  0
   26.5400   11.9900   18.0370 H   0  0  0  0  0  0  0  0  0  0  0  0
   30.7580   12.6320   19.7400 H   0  0  0  0  0  0  0  0  0  0  0  0
   31.2500   10.4480   21.1910 H   0  0  0  0  0  0  0  0  0  0  0  0
  1  2  1  0  0  0  0
  1  4  1  0  0  0  0
  1 43  1  0  0  0  0
  1 44  1  0  0  0  0
  2  3  1  0  0  0  0
  2 45  1  0  0  0  0
  2 46  1  0  0  0  0
  3  4  1  0  0  0  0
  3 47  1  0  0  0  0
  3 48  1  0  0  0  0
  4  5  1  0  0  0  0
  4  6  1  0  0  0  0
  5 18  1  0  0  0  0
  5 49  1  0  0  0  0
  5 50  1  0  0  0  0
  6  7  1  0  0  0  0
  7  8  2  0  0  0  0
  7 17  1  0  0  0  0
  8  9  1  0  0  0  0
  9 10  2  0  0  0  0
  9 51  1  0  0  0  0
 10 11  1  0  0  0  0
 10 16  1  0  0  0  0
 11 12  1  0  0  0  0
 11 52  1  0  0  0  0
 11 53  1  0  0  0  0
 12 13  1  0  0  0  0
 12 14  1  0  0  0  0
 12 15  1  0  0  0  0
 13 54  1  0  0  0  0
 13 55  1  0  0  0  0
 13 56  1  0  0  0  0
 14 57  1  0  0  0  0
 14 58  1  0  0  0  0
 14 59  1  0  0  0  0
 15 60  1  0  0  0  0
 15 61  1  0  0  0  0
 15 62  1  0  0  0  0
 16 17  2  0  0  0  0
 16 63  1  0  0  0  0
 17 18  1  0  0  0  0
 18 19  1  0  0  0  0
 18 64  1  0  0  0  0
 19 20  1  0  0  0  0
 19 65  1  0  0  0  0
 19 66  1  0  0  0  0
 20 21  1  0  0  0  0
 20 67  1  0  0  0  0
 20 68  1  0  0  0  0
 21 22  1  0  0  0  0
 21 23  1  0  0  0  0
 21 69  1  0  0  0  0
 22 70  1  0  0  0  0
 23 24  1  0  0  0  0
 23 31  1  0  0  0  0
 23 71  1  0  0  0  0
 24 25  1  0  0  0  0
 24 72  1  0  0  0  0
 25 26  2  0  0  0  0
 25 27  1  0  0  0  0
 27 28  1  0  0  0  0
 27 29  1  0  0  0  0
 27 73  1  0  0  0  0
 28 74  1  0  0  0  0
 28 75  1  0  0  0  0
 28 76  1  0  0  0  0
 29 30  1  0  0  0  0
 30 77  1  0  0  0  0
 30 78  1  0  0  0  0
 30 79  1  0  0  0  0
 31 32  1  0  0  0  0
 31 80  1  0  0  0  0
 31 81  1  0  0  0  0
 32 33  2  0  0  0  0
 32 34  1  0  0  0  0
 33 37  1  0  0  0  0
 33 82  1  0  0  0  0
 34 35  2  0  0  0  0
 34 83  1  0  0  0  0
 35 36  1  0  0  0  0
 35 84  1  0  0  0  0
 36 37  2  0  0  0  0
 36 85  1  0  0  0  0
 37 38  1  0  0  0  0
 38 39  2  0  0  0  0
 38 42  1  0  0  0  0
 39 40  1  0  0  0  0
 40 41  2  0  0  0  0
 40 86  1  0  0  0  0
 41 42  1  0  0  0  0
 41 87  1  0  0  0  0
M  CHG  1  19   1
M  END
>  <PARENT_CMPD_ID>
22468684_38

>  <STANDARD_TYPE>
IC50

>  <RELATION>
=

>  <STANDARD_VALUE>
7.1999998

>  <STANDARD_UNITS>
nM

>  <COMPOUND_KEY>
38

>  <PUBMED_ID>
22468684

>  <JOURNAL>
J.Med.Chem.

>  <YEAR>
2012

>  <VOLUME>
55

>  <FIRST_PAGE>
9025

>  <Company>
Amgen

>  <idx>
365

>  <Model>
Valid

>  <target>
8.1426678

>  <des_pred_mlr>
7.8372002

>  <RF_Canvas>
8.1780319

>  <DNN_Canvas>
8.084568

>  <pred_CoMFA>
8.8874998

>  <pred_COMSIA>
8.6316996

>  <pred_abm5>
8.9935875

>  <pred_ff8>
8.3654003

>  <pred_gau6>
8.8726196

>  <CID>
BACE_365

>  <active>
1

>  <des_class_bayes>
1

>  <maacs_class_bayes>
1

>  <radial_class_bayes>
1

>  <dend_class_bayes>
1

>  <molprint_class_bayes>
1

>  <RF_canvas>
1

>  <DNN_canvas>
1

$$$$
21078556_6i
  MOE2015           3D

 82 85  0  0  1  0  0  0  0  0999 V2000
   24.7920   12.3690   18.6400 C   0  0  0  0  0  0  0  0  0  0  0  0
   24.9170   17.3240   25.4180 C   0  0  0  0  0  0  0  0  0  0  0  0
   23.5210   12.7190   19.0380 C   0  0  0  0  0  0  0  0  0  0  0  0
   25.4010   11.2960   19.2560 C   0  0  0  0  0  0  0  0  0  0  0  0
   26.2700   17.5310   25.2200 C   0  0  0  0  0  0  0  0  0  0  0  0
   17.2380   13.4630   25.1090 C   0  0  0  0  0  0  0  0  0  0  0  0
   24.2990   16.1880   24.9050 C   0  0  0  0  0  0  0  0  0  0  0  0
   22.8590   12.0160   20.0310 C   0  0  0  0  0  0  0  0  0  0  0  0
   24.7680   10.5840   20.2600 C   0  0  0  0  0  0  0  0  0  0  0  0
   18.2380   13.0650   25.9860 C   0  0  0  0  0  0  0  0  0  0  0  0
   27.0390   16.6150   24.5090 C   0  0  0  0  0  0  0  0  0  0  0  0
   16.4830   12.5140   24.4320 C   0  0  0  0  0  0  0  0  0  0  0  0
   17.7080   10.7680   25.5420 C   0  0  0  0  0  0  0  0  0  0  0  0
   25.8840   13.5860   22.9340 C   0  0  0  0  0  0  0  0  0  0  0  0
   25.0480   15.2500   24.1750 C   0  0  0  0  0  0  0  0  0  0  0  0
   24.7300   14.0220   23.5450 C   0  0  0  0  0  0  0  0  0  0  0  0
   23.4850   10.9430   20.6670 C   0  0  0  0  0  0  0  0  0  0  0  0
   18.4910   11.7110   26.2030 C   0  0  0  0  0  0  0  0  0  0  0  0
   26.4090   15.4770   23.9940 C   0  0  0  0  0  0  0  0  0  0  0  0
   16.7250   11.1620   24.6400 C   0  0  0  0  0  0  0  0  0  0  0  0
   23.4460   13.3400   23.5010 C   0  0  0  0  0  0  0  0  0  0  0  0
   28.2670   14.2400   22.9060 C   0  0  0  0  0  0  0  0  0  0  0  0
   29.3240    9.4780   22.1820 C   0  0  0  0  0  0  0  0  0  0  0  0
   15.5510   10.3870   22.7530 C   0  0  0  0  0  0  0  0  0  0  0  0
   22.8170   10.2050   21.7990 C   0  0  0  0  0  0  0  0  0  0  0  0
   19.6230   11.2670   27.0810 C   0  0  0  0  0  0  0  0  0  0  0  0
   29.1860   10.9750   22.3180 C   0  0  0  0  0  0  0  0  0  0  0  0
   29.6660   11.7050   21.0720 C   0  0  0  0  0  0  0  0  0  0  0  0
   29.7880   13.2090   21.2950 C   0  0  0  0  0  0  0  0  0  0  0  0
   21.3550   11.3180   25.2420 C   0  0  0  0  0  0  0  0  0  0  0  0
   22.4300   11.1300   22.9720 C   0  0  3  0  0  0  0  0  0  0  0  0
   21.9200   10.3510   24.2000 C   0  0  3  0  0  0  0  0  0  0  0  0
   26.9180   14.4350   23.2390 N   0  0  0  0  0  0  0  0  0  0  0  0
   23.5550   11.9790   23.3200 N   0  0  0  0  0  0  0  0  0  0  0  0
   20.7050   10.5380   26.3460 N   0  3  0  0  0  0  0  0  0  0  0  0
   28.5160   13.8510   21.5940 N   0  0  0  0  0  0  0  0  0  0  0  0
   27.6320   14.0770   20.4660 C   0  0  0  0  0  0  0  0  0  0  0  0
   28.2060   14.5150   19.6430 H   0  0  0  0  0  0  0  0  0  0  0  0
   26.8220   14.7690   20.7060 H   0  0  0  0  0  0  0  0  0  0  0  0
   27.2250   13.1200   20.1470 H   0  0  0  0  0  0  0  0  0  0  0  0
   22.3680   13.9120   23.6260 O   0  0  0  0  0  0  0  0  0  0  0  0
   29.0880   14.3690   23.8000 O   0  0  0  0  0  0  0  0  0  0  0  0
   20.8990    9.4290   23.8080 O   0  0  0  0  0  0  0  0  0  0  0  0
   16.0360   10.1380   24.0650 O   0  0  0  0  0  0  0  0  0  0  0  0
   25.3010   12.9240   17.8610 H   0  0  0  0  0  0  0  0  0  0  0  0
   24.3320   18.0520   25.9740 H   0  0  0  0  0  0  0  0  0  0  0  0
   22.9190   13.7600   18.4630 F   0  0  0  0  0  0  0  0  0  0  0  0
   26.6380   10.9530   18.8980 F   0  0  0  0  0  0  0  0  0  0  0  0
   26.7440   18.4230   25.6250 H   0  0  0  0  0  0  0  0  0  0  0  0
   17.0480   14.5210   24.9470 H   0  0  0  0  0  0  0  0  0  0  0  0
   23.2340   16.0380   25.0620 H   0  0  0  0  0  0  0  0  0  0  0  0
   21.8570   12.3310   20.3090 H   0  0  0  0  0  0  0  0  0  0  0  0
   25.2960    9.7550   20.7220 H   0  0  0  0  0  0  0  0  0  0  0  0
   18.8260   13.8320   26.4880 H   0  0  0  0  0  0  0  0  0  0  0  0
   28.1020   16.7910   24.3630 H   0  0  0  0  0  0  0  0  0  0  0  0
   15.6980   12.8520   23.7630 H   0  0  0  0  0  0  0  0  0  0  0  0
   17.8610    9.7030   25.7050 H   0  0  0  0  0  0  0  0  0  0  0  0
   26.0750   12.7030   22.3390 H   0  0  0  0  0  0  0  0  0  0  0  0
   28.9640    8.9780   23.0870 H   0  0  0  0  0  0  0  0  0  0  0  0
   30.3680    9.1880   22.0290 H   0  0  0  0  0  0  0  0  0  0  0  0
   28.7380    9.1050   21.3350 H   0  0  0  0  0  0  0  0  0  0  0  0
   15.2590    9.4270   22.3150 H   0  0  0  0  0  0  0  0  0  0  0  0
   16.3220   10.8270   22.1120 H   0  0  0  0  0  0  0  0  0  0  0  0
   14.6600   11.0230   22.7840 H   0  0  0  0  0  0  0  0  0  0  0  0
   23.4890    9.4190   22.1700 H   0  0  0  0  0  0  0  0  0  0  0  0
   21.9310    9.6920   21.4040 H   0  0  0  0  0  0  0  0  0  0  0  0
   19.2550   10.5800   27.8520 H   0  0  0  0  0  0  0  0  0  0  0  0
   20.1050   12.1110   27.5870 H   0  0  0  0  0  0  0  0  0  0  0  0
   29.7650   11.3010   23.1900 H   0  0  0  0  0  0  0  0  0  0  0  0
   28.1370   11.2190   22.5170 H   0  0  0  0  0  0  0  0  0  0  0  0
   28.9900   11.4930   20.2360 H   0  0  0  0  0  0  0  0  0  0  0  0
   30.6540   11.3240   20.7830 H   0  0  0  0  0  0  0  0  0  0  0  0
   30.2090   13.6850   20.4010 H   0  0  0  0  0  0  0  0  0  0  0  0
   30.5010   13.3940   22.1070 H   0  0  0  0  0  0  0  0  0  0  0  0
   20.5950   11.9500   24.7770 H   0  0  0  0  0  0  0  0  0  0  0  0
   22.1210   11.9450   25.7070 H   0  0  0  0  0  0  0  0  0  0  0  0
   21.6120   11.7720   22.6170 H   0  0  0  0  0  0  0  0  0  0  0  0
   22.7330    9.7640   24.6450 H   0  0  0  0  0  0  0  0  0  0  0  0
   24.4710   11.5510   23.4040 H   0  0  0  0  0  0  0  0  0  0  0  0
   20.3050    9.6940   25.9020 H   0  0  0  0  0  0  0  0  0  0  0  0
   21.4130   10.1970   27.0080 H   0  0  0  0  0  0  0  0  0  0  0  0
   20.2530    9.8760   23.2270 H   0  0  0  0  0  0  0  0  0  0  0  0
  1  3  2  0  0  0  0
  1  4  1  0  0  0  0
  1 45  1  0  0  0  0
  2  5  2  0  0  0  0
  2  7  1  0  0  0  0
  2 46  1  0  0  0  0
  3  8  1  0  0  0  0
  3 47  1  0  0  0  0
  4  9  2  0  0  0  0
  4 48  1  0  0  0  0
  5 11  1  0  0  0  0
  5 49  1  0  0  0  0
  6 10  2  0  0  0  0
  6 12  1  0  0  0  0
  6 50  1  0  0  0  0
  7 15  2  0  0  0  0
  7 51  1  0  0  0  0
  8 17  2  0  0  0  0
  8 52  1  0  0  0  0
  9 17  1  0  0  0  0
  9 53  1  0  0  0  0
 10 18  1  0  0  0  0
 10 54  1  0  0  0  0
 11 19  2  0  0  0  0
 11 55  1  0  0  0  0
 12 20  2  0  0  0  0
 12 56  1  0  0  0  0
 13 18  2  0  0  0  0
 13 20  1  0  0  0  0
 13 57  1  0  0  0  0
 14 16  2  0  0  0  0
 14 33  1  0  0  0  0
 14 58  1  0  0  0  0
 15 16  1  0  0  0  0
 15 19  1  0  0  0  0
 16 21  1  0  0  0  0
 17 25  1  0  0  0  0
 18 26  1  0  0  0  0
 19 33  1  0  0  0  0
 20 44  1  0  0  0  0
 21 34  1  0  0  0  0
 21 41  2  0  0  0  0
 22 33  1  0  0  0  0
 22 36  1  0  0  0  0
 22 42  2  0  0  0  0
 23 27  1  0  0  0  0
 23 59  1  0  0  0  0
 23 60  1  0  0  0  0
 23 61  1  0  0  0  0
 24 44  1  0  0  0  0
 24 62  1  0  0  0  0
 24 63  1  0  0  0  0
 24 64  1  0  0  0  0
 25 31  1  0  0  0  0
 25 65  1  0  0  0  0
 25 66  1  0  0  0  0
 26 35  1  0  0  0  0
 26 67  1  0  0  0  0
 26 68  1  0  0  0  0
 27 28  1  0  0  0  0
 27 69  1  0  0  0  0
 27 70  1  0  0  0  0
 28 29  1  0  0  0  0
 28 71  1  0  0  0  0
 28 72  1  0  0  0  0
 29 36  1  0  0  0  0
 29 73  1  0  0  0  0
 29 74  1  0  0  0  0
 30 32  1  0  0  0  0
 30 35  1  0  0  0  0
 30 75  1  0  0  0  0
 30 76  1  0  0  0  0
 31 32  1  0  0  0  0
 31 34  1  0  0  0  0
 31 77  1  0  0  0  0
 32 43  1  0  0  0  0
 32 78  1  0  0  0  0
 34 79  1  0  0  0  0
 35 80  1  0  0  0  0
 35 81  1  0  0  0  0
 36 37  1  0  0  0  0
 37 38  1  0  0  0  0
 37 39  1  0  0  0  0
 37 40  1  0  0  0  0
 43 82  1  0  0  0  0
M  CHG  1  35   1
M  END
>  <PARENT_CMPD_ID>
21078556_6i

>  <STANDARD_TYPE>
IC50

>  <RELATION>
=

>  <STANDARD_VALUE>
7.4000001

>  <STANDARD_UNITS>
nM

>  <COMPOUND_KEY>
6i

>  <PUBMED_ID>
21078556

>  <JOURNAL>
Bioorg.Med.Chem.Lett.

>  <YEAR>
2011

>  <VOLUME>
21

>  <FIRST_PAGE>
537

>  <Company>
BMS

>  <idx>
366

>  <Model>
Valid

>  <target>
8.1307678

>  <des_pred_mlr>
7.6384001

>  <RF_Canvas>
7.7305741

>  <DNN_Canvas>
7.1911502

>  <pred_CoMFA>
7.8758998

>  <pred_COMSIA>
8.3592997

>  <pred_abm5>
7.8392959

>  <pred_ff8>
6.8255348

>  <pred_gau6>
8.023489

>  <CID>
BACE_366

>  <active>
1

>  <des_class_bayes>
1

>  <maacs_class_bayes>
1

>  <radial_class_bayes>
1

>  <dend_class_bayes>
1

>  <molprint_class_bayes>
1

>  <RF_canvas>
1

>  <DNN_canvas>
1

$$$$
22698785_27
  MOE2015           3D

 84 86  0  0  1  0  0  0  0  0999 V2000
   28.1730   16.7690   28.1740 O   0  0  0  0  0  0  0  0  0  0  0  0
   28.4890   16.0890   26.9380 S   0  0  0  0  0  0  0  0  0  0  0  0
   29.2790   14.8810   26.9930 O   0  0  0  0  0  0  0  0  0  0  0  0
   29.3150   17.2730   25.8950 C   0  0  0  0  0  0  0  0  0  0  0  0
   30.2720   17.5160   26.3640 H   0  0  0  0  0  0  0  0  0  0  0  0
   28.7090   18.1770   25.8220 H   0  0  0  0  0  0  0  0  0  0  0  0
   29.4940   16.8460   24.9090 H   0  0  0  0  0  0  0  0  0  0  0  0
   27.0430   15.8310   26.0940 N   0  0  0  0  0  0  0  0  0  0  0  0
   26.0630   16.9340   26.0770 C   0  0  0  0  0  0  0  0  0  0  0  0
   26.4290   17.8200   26.6030 H   0  0  0  0  0  0  0  0  0  0  0  0
   25.1390   16.6230   26.5740 H   0  0  0  0  0  0  0  0  0  0  0  0
   25.8410   17.2430   25.0500 H   0  0  0  0  0  0  0  0  0  0  0  0
   26.9120   14.8090   25.0920 C   0  0  0  0  0  0  0  0  0  0  0  0
   27.9840   14.3540   24.3220 C   0  0  0  0  0  0  0  0  0  0  0  0
   28.9970   14.7010   24.4900 H   0  0  0  0  0  0  0  0  0  0  0  0
   27.7800   13.4330   23.3010 C   0  0  0  0  0  0  0  0  0  0  0  0
   25.6380   14.2920   24.8490 C   0  0  0  0  0  0  0  0  0  0  0  0
   24.7890   14.6080   25.4490 H   0  0  0  0  0  0  0  0  0  0  0  0
   25.4480   13.3390   23.8610 C   0  0  0  0  0  0  0  0  0  0  0  0
   26.5140   12.9210   23.0740 C   0  0  0  0  0  0  0  0  0  0  0  0
   26.3660   12.1890   22.2830 H   0  0  0  0  0  0  0  0  0  0  0  0
   24.1130   12.7410   23.6470 C   0  0  0  0  0  0  0  0  0  0  0  0
   23.0910   13.4080   23.6940 O   0  0  0  0  0  0  0  0  0  0  0  0
   24.1640   11.3960   23.3890 N   0  0  0  0  0  0  0  0  0  0  0  0
   25.0510   10.9130   23.4970 H   0  0  0  0  0  0  0  0  0  0  0  0
   23.0480   10.5870   22.9250 C   0  0  3  0  0  0  0  0  0  0  0  0
   22.3210   11.2480   22.4370 H   0  0  0  0  0  0  0  0  0  0  0  0
   22.4010    9.8370   24.1010 C   0  0  3  0  0  0  0  0  0  0  0  0
   23.1390    9.1790   24.5760 H   0  0  0  0  0  0  0  0  0  0  0  0
   21.8600   10.8120   25.1510 C   0  0  0  0  0  0  0  0  0  0  0  0
   21.1110   11.4680   24.7000 H   0  0  0  0  0  0  0  0  0  0  0  0
   22.6390   11.4040   25.6390 H   0  0  0  0  0  0  0  0  0  0  0  0
   21.1910   10.0180   26.2320 N   0  3  0  0  0  0  0  0  0  0  0  0
   21.8950    9.5620   26.8250 H   0  0  0  0  0  0  0  0  0  0  0  0
   20.7020    9.2470   25.7480 H   0  0  0  0  0  0  0  0  0  0  0  0
   20.2230   10.7770   27.0770 C   0  0  0  0  0  0  0  0  0  0  0  0
   20.7980   11.5670   27.5740 H   0  0  0  0  0  0  0  0  0  0  0  0
   19.8750   10.0820   27.8490 H   0  0  0  0  0  0  0  0  0  0  0  0
   19.0500   11.3250   26.3210 C   0  0  0  0  0  0  0  0  0  0  0  0
   18.1830   10.4700   25.6400 C   0  0  0  0  0  0  0  0  0  0  0  0
   18.3380    9.3930   25.6850 H   0  0  0  0  0  0  0  0  0  0  0  0
   17.1070   10.9580   24.8950 C   0  0  0  0  0  0  0  0  0  0  0  0
   16.2240    9.9690   24.1720 C   0  0  0  0  0  0  0  0  0  0  0  0
   16.8820    9.2130   23.7220 H   0  0  0  0  0  0  0  0  0  0  0  0
   15.3000    9.2650   25.1560 C   0  0  0  0  0  0  0  0  0  0  0  0
   14.6300    9.9750   25.6550 H   0  0  0  0  0  0  0  0  0  0  0  0
   15.8630    8.7410   25.9360 H   0  0  0  0  0  0  0  0  0  0  0  0
   14.6800    8.5200   24.6460 H   0  0  0  0  0  0  0  0  0  0  0  0
   15.4110   10.5570   23.0250 C   0  0  0  0  0  0  0  0  0  0  0  0
   14.6420   11.2530   23.3790 H   0  0  0  0  0  0  0  0  0  0  0  0
   14.8960    9.7620   22.4730 H   0  0  0  0  0  0  0  0  0  0  0  0
   16.0520   11.0880   22.3130 H   0  0  0  0  0  0  0  0  0  0  0  0
   16.8960   12.3340   24.8690 C   0  0  0  0  0  0  0  0  0  0  0  0
   16.0630   12.7670   24.3200 H   0  0  0  0  0  0  0  0  0  0  0  0
   17.7440   13.1960   25.5510 C   0  0  0  0  0  0  0  0  0  0  0  0
   17.5640   14.2680   25.5170 H   0  0  0  0  0  0  0  0  0  0  0  0
   18.8170   12.6960   26.2720 C   0  0  0  0  0  0  0  0  0  0  0  0
   19.4660   13.3960   26.7930 H   0  0  0  0  0  0  0  0  0  0  0  0
   21.3180    9.0040   23.6730 O   0  0  0  0  0  0  0  0  0  0  0  0
   20.7650    9.4970   23.0370 H   0  0  0  0  0  0  0  0  0  0  0  0
   23.6000    9.6030   21.8740 C   0  0  0  0  0  0  0  0  0  0  0  0
   22.7900    9.1370   21.3030 H   0  0  0  0  0  0  0  0  0  0  0  0
   24.1710    8.8120   22.3760 H   0  0  0  0  0  0  0  0  0  0  0  0
   24.4510   10.3240   20.9720 O   0  0  0  0  0  0  0  0  0  0  0  0
   25.5240    9.5200   20.4850 C   0  0  0  0  0  0  0  0  0  0  0  0
   25.1270    8.5840   20.0760 H   0  0  0  0  0  0  0  0  0  0  0  0
   26.2000    9.2830   21.3120 H   0  0  0  0  0  0  0  0  0  0  0  0
   26.2110   10.2710   19.3980 C   0  0  0  0  0  0  0  0  0  0  0  0
   25.5520   10.5240   18.5670 H   0  0  0  0  0  0  0  0  0  0  0  0
   29.4860   11.7350   20.4060 C   0  0  0  0  0  0  0  0  0  0  0  0
   30.3840   11.4610   20.9700 H   0  0  0  0  0  0  0  0  0  0  0  0
   29.8190   12.1300   19.4390 H   0  0  0  0  0  0  0  0  0  0  0  0
   28.7770   12.7870   21.1380 N   0  0  0  0  0  0  0  0  0  0  0  0
   27.9350   13.6950   20.3660 C   0  0  0  0  0  0  0  0  0  0  0  0
   28.4580   13.9820   19.4490 H   0  0  0  0  0  0  0  0  0  0  0  0
   27.7210   14.6060   20.9320 H   0  0  0  0  0  0  0  0  0  0  0  0
   26.9930   13.2040   20.1130 H   0  0  0  0  0  0  0  0  0  0  0  0
   28.9210   12.8920   22.5230 C   0  0  0  0  0  0  0  0  0  0  0  0
   29.8740   12.4690   23.1690 O   0  0  0  0  0  0  0  0  0  0  0  0
   27.4940   10.6430   19.2800 C   0  0  0  0  0  0  0  0  0  0  0  0
   27.7630   11.1520   18.3530 H   0  0  0  0  0  0  0  0  0  0  0  0
   28.6250   10.4660   20.2380 C   0  0  0  0  0  0  0  0  0  0  0  0
   29.2710    9.6700   19.8480 H   0  0  0  0  0  0  0  0  0  0  0  0
   28.2680   10.1380   21.2200 H   0  0  0  0  0  0  0  0  0  0  0  0
  1  2  2  0  0  0  0
  2  3  2  0  0  0  0
  2  4  1  0  0  0  0
  2  8  1  0  0  0  0
  4  5  1  0  0  0  0
  4  6  1  0  0  0  0
  4  7  1  0  0  0  0
  8  9  1  0  0  0  0
  8 13  1  0  0  0  0
  9 10  1  0  0  0  0
  9 11  1  0  0  0  0
  9 12  1  0  0  0  0
 13 14  2  0  0  0  0
 13 17  1  0  0  0  0
 14 15  1  0  0  0  0
 14 16  1  0  0  0  0
 16 20  2  0  0  0  0
 16 78  1  0  0  0  0
 17 18  1  0  0  0  0
 17 19  2  0  0  0  0
 19 20  1  0  0  0  0
 19 22  1  0  0  0  0
 20 21  1  0  0  0  0
 22 23  2  0  0  0  0
 22 24  1  0  0  0  0
 24 25  1  0  0  0  0
 24 26  1  0  0  0  0
 26 27  1  0  0  0  0
 26 28  1  0  0  0  0
 26 61  1  0  0  0  0
 28 29  1  0  0  0  0
 28 30  1  0  0  0  0
 28 59  1  0  0  0  0
 30 31  1  0  0  0  0
 30 32  1  0  0  0  0
 30 33  1  0  0  0  0
 33 34  1  0  0  0  0
 33 35  1  0  0  0  0
 33 36  1  0  0  0  0
 36 37  1  0  0  0  0
 36 38  1  0  0  0  0
 36 39  1  0  0  0  0
 39 40  1  0  0  0  0
 39 57  2  0  0  0  0
 40 41  1  0  0  0  0
 40 42  2  0  0  0  0
 42 43  1  0  0  0  0
 42 53  1  0  0  0  0
 43 44  1  0  0  0  0
 43 45  1  0  0  0  0
 43 49  1  0  0  0  0
 45 46  1  0  0  0  0
 45 47  1  0  0  0  0
 45 48  1  0  0  0  0
 49 50  1  0  0  0  0
 49 51  1  0  0  0  0
 49 52  1  0  0  0  0
 53 54  1  0  0  0  0
 53 55  2  0  0  0  0
 55 56  1  0  0  0  0
 55 57  1  0  0  0  0
 57 58  1  0  0  0  0
 59 60  1  0  0  0  0
 61 62  1  0  0  0  0
 61 63  1  0  0  0  0
 61 64  1  0  0  0  0
 64 65  1  0  0  0  0
 65 66  1  0  0  0  0
 65 67  1  0  0  0  0
 65 68  1  0  0  0  0
 68 69  1  0  0  0  0
 68 80  2  0  0  0  0
 70 71  1  0  0  0  0
 70 72  1  0  0  0  0
 70 73  1  0  0  0  0
 70 82  1  0  0  0  0
 73 74  1  0  0  0  0
 73 78  1  0  0  0  0
 74 75  1  0  0  0  0
 74 76  1  0  0  0  0
 74 77  1  0  0  0  0
 78 79  2  0  0  0  0
 80 81  1  0  0  0  0
 80 82  1  0  0  0  0
 82 83  1  0  0  0  0
 82 84  1  0  0  0  0
M  CHG  1  33   1
M  END
>  <PARENT_CMPD_ID>
22698785_27

>  <STANDARD_TYPE>
IC50

>  <RELATION>
=

>  <STANDARD_VALUE>
7.5

>  <STANDARD_UNITS>
nM

>  <COMPOUND_KEY>
27

>  <PUBMED_ID>
22698785

>  <JOURNAL>
Bioorg. Med. Chem.

>  <YEAR>
2012

>  <VOLUME>
20

>  <FIRST_PAGE>
4377

>  <Company>
Medivir

>  <idx>
367

>  <Model>
Valid

>  <target>
8.124939

>  <des_pred_mlr>
6.8235402

>  <RF_Canvas>
7.1515203

>  <DNN_Canvas>
6.5891771

>  <pred_CoMFA>
7.0053

>  <pred_COMSIA>
7.2145

>  <pred_abm5>
6.826097

>  <pred_ff8>
8.7128878

>  <pred_gau6>
6.9002557

>  <CID>
BACE_367

>  <active>
1

>  <des_class_bayes>
1

>  <maacs_class_bayes>
1

>  <radial_class_bayes>
0

>  <dend_class_bayes>
1

>  <molprint_class_bayes>
1

>  <RF_canvas>
1

>  <DNN_canvas>
1

$$$$
CHEMBL554146
  MOE2015           3D

 76 80  0  0  1  0  0  0  0  0999 V2000
   29.4540   12.4830   19.8950 C   0  0  0  0  0  0  0  0  0  0  0  0
   29.5500   12.1490   21.3630 C   0  0  0  0  0  0  0  0  0  0  0  0
   29.2400   13.3210   22.2230 C   0  0  0  0  0  0  0  0  0  0  0  0
   30.1200   14.3000   22.6300 C   0  0  0  0  0  0  0  0  0  0  0  0
   29.4600   15.1390   23.4700 N   0  0  0  0  0  0  0  0  0  0  0  0
   29.9870   16.3400   24.0720 C   0  0  0  0  0  0  0  0  0  0  0  0
   30.1270   16.2940   25.5740 C   0  0  0  0  0  0  0  0  0  0  0  0
   28.6540   15.8960   26.5100 S   0  0  0  0  0  0  0  0  0  0  0  0
   28.5020   16.8690   27.5700 O   0  0  0  0  0  0  0  0  0  0  0  0
   28.6830   14.4830   26.8260 O   0  0  0  0  0  0  0  0  0  0  0  0
   27.4630   16.1790   25.4210 O   0  0  0  0  0  0  0  0  0  0  0  0
   27.1900   15.1880   24.5100 C   0  0  0  0  0  0  0  0  0  0  0  0
   25.9260   14.6000   24.4460 C   0  0  0  0  0  0  0  0  0  0  0  0
   25.6960   13.5170   23.5940 C   0  0  0  0  0  0  0  0  0  0  0  0
   26.7210   13.0310   22.7730 C   0  0  0  0  0  0  0  0  0  0  0  0
   27.9900   13.6160   22.8260 C   0  0  0  0  0  0  0  0  0  0  0  0
   28.1780   14.7030   23.6590 C   0  0  0  0  0  0  0  0  0  0  0  0
   24.3570   12.8670   23.5280 C   0  0  0  0  0  0  0  0  0  0  0  0
   23.3180   13.5050   23.6340 O   0  0  0  0  0  0  0  0  0  0  0  0
   24.3670   11.5050   23.2800 N   0  0  0  0  0  0  0  0  0  0  0  0
   23.1600   10.7560   22.9410 C   0  0  3  0  0  0  0  0  0  0  0  0
   23.4470    9.7970   21.7620 C   0  0  0  0  0  0  0  0  0  0  0  0
   24.2700   10.4210   20.6650 C   0  0  0  0  0  0  0  0  0  0  0  0
   23.8630   11.6000   20.0420 C   0  0  0  0  0  0  0  0  0  0  0  0
   24.6640   12.2010   19.0810 C   0  0  0  0  0  0  0  0  0  0  0  0
   25.8690   11.6210   18.7170 C   0  0  0  0  0  0  0  0  0  0  0  0
   26.2740   10.4380   19.3130 C   0  0  0  0  0  0  0  0  0  0  0  0
   25.4790    9.8390   20.2810 C   0  0  0  0  0  0  0  0  0  0  0  0
   22.6010    9.9990   24.1590 C   0  0  2  0  0  0  0  0  0  0  0  0
   21.4510    9.2040   23.8190 O   0  0  0  0  0  0  0  0  0  0  0  0
   22.1850   10.9300   25.2960 C   0  0  0  0  0  0  0  0  0  0  0  0
   21.4050   10.0950   26.2730 N   0  3  0  0  0  0  0  0  0  0  0  0
   20.4620   10.8360   27.1450 C   0  0  0  0  0  0  0  0  0  0  0  0
   19.2710   11.3580   26.3980 C   0  0  0  0  0  0  0  0  0  0  0  0
   18.4190   10.4840   25.7210 C   0  0  0  0  0  0  0  0  0  0  0  0
   17.3520   10.9670   24.9760 C   0  0  0  0  0  0  0  0  0  0  0  0
   17.1120   12.3280   24.9170 C   0  0  0  0  0  0  0  0  0  0  0  0
   17.9330   13.2100   25.6140 C   0  0  0  0  0  0  0  0  0  0  0  0
   19.0150   12.7230   26.3460 C   0  0  0  0  0  0  0  0  0  0  0  0
   17.6650   14.6750   25.5390 C   0  0  0  0  0  0  0  0  0  0  0  0
   18.3170   15.3830   26.4990 F   0  0  0  0  0  0  0  0  0  0  0  0
   16.3480   14.9740   25.6780 F   0  0  0  0  0  0  0  0  0  0  0  0
   18.0530   15.2050   24.3500 F   0  0  0  0  0  0  0  0  0  0  0  0
   29.6370   11.5920   19.2860 H   0  0  0  0  0  0  0  0  0  0  0  0
   30.1940   13.2400   19.6120 H   0  0  0  0  0  0  0  0  0  0  0  0
   28.4660   12.8780   19.6370 H   0  0  0  0  0  0  0  0  0  0  0  0
   30.5600   11.7850   21.5880 H   0  0  0  0  0  0  0  0  0  0  0  0
   28.8690   11.3210   21.5930 H   0  0  0  0  0  0  0  0  0  0  0  0
   31.1650   14.4480   22.3890 H   0  0  0  0  0  0  0  0  0  0  0  0
   30.9650   16.5410   23.6200 H   0  0  0  0  0  0  0  0  0  0  0  0
   29.3280   17.1630   23.7680 H   0  0  0  0  0  0  0  0  0  0  0  0
   30.4660   17.2730   25.9310 H   0  0  0  0  0  0  0  0  0  0  0  0
   30.8810   15.5560   25.8670 H   0  0  0  0  0  0  0  0  0  0  0  0
   25.1280   14.9690   25.0870 H   0  0  0  0  0  0  0  0  0  0  0  0
   26.5520   12.2150   22.0790 H   0  0  0  0  0  0  0  0  0  0  0  0
   25.2480   11.0000   23.3130 H   0  0  0  0  0  0  0  0  0  0  0  0
   22.3970   11.4690   22.6010 H   0  0  0  0  0  0  0  0  0  0  0  0
   23.9740    8.9130   22.1460 H   0  0  0  0  0  0  0  0  0  0  0  0
   22.5070    9.4300   21.3320 H   0  0  0  0  0  0  0  0  0  0  0  0
   22.9200   12.0720   20.3080 H   0  0  0  0  0  0  0  0  0  0  0  0
   24.3400   13.1240   18.6070 H   0  0  0  0  0  0  0  0  0  0  0  0
   26.4910   12.0900   17.9590 H   0  0  0  0  0  0  0  0  0  0  0  0
   27.2160    9.9790   19.0240 H   0  0  0  0  0  0  0  0  0  0  0  0
   25.8190    8.9130   20.7390 H   0  0  0  0  0  0  0  0  0  0  0  0
   23.3580    9.3000   24.5370 H   0  0  0  0  0  0  0  0  0  0  0  0
   20.9320    9.6720   23.1360 H   0  0  0  0  0  0  0  0  0  0  0  0
   21.5160   11.7110   24.9240 H   0  0  0  0  0  0  0  0  0  0  0  0
   23.0290   11.3740   25.8320 H   0  0  0  0  0  0  0  0  0  0  0  0
   20.9060    9.4060   25.6820 H   0  0  0  0  0  0  0  0  0  0  0  0
   22.0500    9.5350   26.8430 H   0  0  0  0  0  0  0  0  0  0  0  0
   20.1310   10.1320   27.9170 H   0  0  0  0  0  0  0  0  0  0  0  0
   21.0330   11.6300   27.6380 H   0  0  0  0  0  0  0  0  0  0  0  0
   18.5700    9.4070   25.7620 H   0  0  0  0  0  0  0  0  0  0  0  0
   16.6980   10.2770   24.4470 H   0  0  0  0  0  0  0  0  0  0  0  0
   16.2700   12.6980   24.3330 H   0  0  0  0  0  0  0  0  0  0  0  0
   19.6660   13.4240   26.8690 H   0  0  0  0  0  0  0  0  0  0  0  0
  1  2  1  0  0  0  0
  1 44  1  0  0  0  0
  1 45  1  0  0  0  0
  1 46  1  0  0  0  0
  2  3  1  0  0  0  0
  2 47  1  0  0  0  0
  2 48  1  0  0  0  0
  3  4  2  0  0  0  0
  3 16  1  0  0  0  0
  4  5  1  0  0  0  0
  4 49  1  0  0  0  0
  5  6  1  0  0  0  0
  5 17  1  0  0  0  0
  6  7  1  0  0  0  0
  6 50  1  0  0  0  0
  6 51  1  0  0  0  0
  7  8  1  0  0  0  0
  7 52  1  0  0  0  0
  7 53  1  0  0  0  0
  8  9  2  0  0  0  0
  8 10  2  0  0  0  0
  8 11  1  0  0  0  0
 11 12  1  0  0  0  0
 12 13  1  0  0  0  0
 12 17  2  0  0  0  0
 13 14  2  0  0  0  0
 13 54  1  0  0  0  0
 14 15  1  0  0  0  0
 14 18  1  0  0  0  0
 15 16  2  0  0  0  0
 15 55  1  0  0  0  0
 16 17  1  0  0  0  0
 18 19  2  0  0  0  0
 18 20  1  0  0  0  0
 20 21  1  0  0  0  0
 20 56  1  0  0  0  0
 21 22  1  0  0  0  0
 21 29  1  0  0  0  0
 21 57  1  0  0  0  0
 22 23  1  0  0  0  0
 22 58  1  0  0  0  0
 22 59  1  0  0  0  0
 23 24  1  0  0  0  0
 23 28  2  0  0  0  0
 24 25  2  0  0  0  0
 24 60  1  0  0  0  0
 25 26  1  0  0  0  0
 25 61  1  0  0  0  0
 26 27  2  0  0  0  0
 26 62  1  0  0  0  0
 27 28  1  0  0  0  0
 27 63  1  0  0  0  0
 28 64  1  0  0  0  0
 29 30  1  0  0  0  0
 29 31  1  0  0  0  0
 29 65  1  0  0  0  0
 30 66  1  0  0  0  0
 31 32  1  0  0  0  0
 31 67  1  0  0  0  0
 31 68  1  0  0  0  0
 32 33  1  0  0  0  0
 32 69  1  0  0  0  0
 32 70  1  0  0  0  0
 33 34  1  0  0  0  0
 33 71  1  0  0  0  0
 33 72  1  0  0  0  0
 34 35  1  0  0  0  0
 34 39  2  0  0  0  0
 35 36  2  0  0  0  0
 35 73  1  0  0  0  0
 36 37  1  0  0  0  0
 36 74  1  0  0  0  0
 37 38  2  0  0  0  0
 37 75  1  0  0  0  0
 38 39  1  0  0  0  0
 38 40  1  0  0  0  0
 39 76  1  0  0  0  0
 40 41  1  0  0  0  0
 40 42  1  0  0  0  0
 40 43  1  0  0  0  0
M  CHG  1  32   1
M  END
>  <PARENT_CMPD_ID>
CHEMBL554146

>  <STANDARD_TYPE>
IC50

>  <RELATION>
=

>  <STANDARD_VALUE>
8

>  <STANDARD_UNITS>
nM

>  <COMPOUND_KEY>
18

>  <PUBMED_ID>
19406640

>  <JOURNAL>
Bioorg. Med. Chem. Lett.

>  <YEAR>
2009

>  <VOLUME>
19

>  <FIRST_PAGE>
3674

>  <Company>
GSK

>  <idx>
368

>  <Model>
Valid

>  <target>
8.0969105

>  <des_pred_mlr>
7.4517002

>  <RF_Canvas>
8.0128098

>  <DNN_Canvas>
8.0455484

>  <pred_CoMFA>
7.25

>  <pred_COMSIA>
6.9777999

>  <pred_abm5>
6.9198942

>  <pred_ff8>
8.5957737

>  <pred_gau6>
6.5576744

>  <CID>
BACE_368

>  <active>
1

>  <des_class_bayes>
1

>  <maacs_class_bayes>
0

>  <radial_class_bayes>
1

>  <dend_class_bayes>
1

>  <molprint_class_bayes>
1

>  <RF_canvas>
1

>  <DNN_canvas>
1

$$$$
CHEMBL558273
  MOE2015           3D

 73 76  0  0  1  0  0  0  0  0999 V2000
   18.3830   12.7610   26.2480 C   0  0  0  0  0  0  0  0  0  0  0  0
   19.0410   11.4310   25.9370 C   0  0  0  0  0  0  0  0  0  0  0  0
   20.2360   11.1590   26.8520 C   0  0  0  0  0  0  0  0  0  0  0  0
   21.2160   10.2660   26.1640 N   0  3  0  0  0  0  0  0  0  0  0  0
   22.1230   10.9850   25.2000 C   0  0  0  0  0  0  0  0  0  0  0  0
   22.5640    9.9840   24.1330 C   0  0  1  0  0  0  0  0  0  0  0  0
   21.4200    9.1860   23.7990 O   0  0  0  0  0  0  0  0  0  0  0  0
   23.1420   10.7020   22.8950 C   0  0  3  0  0  0  0  0  0  0  0  0
   23.4510    9.7330   21.7330 C   0  0  0  0  0  0  0  0  0  0  0  0
   24.2780   10.3670   20.6410 C   0  0  0  0  0  0  0  0  0  0  0  0
   23.8640   11.5400   20.0090 C   0  0  0  0  0  0  0  0  0  0  0  0
   24.6730   12.1580   19.0640 C   0  0  0  0  0  0  0  0  0  0  0  0
   25.8930   11.5980   18.7210 C   0  0  0  0  0  0  0  0  0  0  0  0
   26.3050   10.4200   19.3240 C   0  0  0  0  0  0  0  0  0  0  0  0
   25.5040    9.8080   20.2790 C   0  0  0  0  0  0  0  0  0  0  0  0
   24.3380   11.4640   23.2260 N   0  0  0  0  0  0  0  0  0  0  0  0
   24.3140   12.8210   23.4570 C   0  0  0  0  0  0  0  0  0  0  0  0
   23.2780   13.4620   23.5720 O   0  0  0  0  0  0  0  0  0  0  0  0
   25.6420   13.4710   23.5120 C   0  0  0  0  0  0  0  0  0  0  0  0
   25.8570   14.4900   24.4200 C   0  0  0  0  0  0  0  0  0  0  0  0
   27.1200   15.0720   24.5470 C   0  0  0  0  0  0  0  0  0  0  0  0
   27.2520   16.0890   25.5390 N   0  0  0  0  0  0  0  0  0  0  0  0
   26.6530   17.3910   25.2460 C   0  0  0  0  0  0  0  0  0  0  0  0
   28.6200   16.0010   26.5350 S   0  0  0  0  0  0  0  0  0  0  0  0
   28.4140   16.9280   27.6260 O   0  0  0  0  0  0  0  0  0  0  0  0
   28.8280   14.5980   26.8180 O   0  0  0  0  0  0  0  0  0  0  0  0
   29.8610   16.6950   25.4690 C   0  0  0  0  0  0  0  0  0  0  0  0
   30.4630   15.7450   24.4820 C   0  0  0  0  0  0  0  0  0  0  0  0
   29.5630   14.9740   23.5850 C   0  0  0  0  0  0  0  0  0  0  0  0
   30.0430   14.2680   22.5060 C   0  0  0  0  0  0  0  0  0  0  0  0
   29.0560   13.4650   22.0390 N   0  0  0  0  0  0  0  0  0  0  0  0
   29.2390   12.5170   20.9620 C   0  0  0  0  0  0  0  0  0  0  0  0
   29.5760   11.1310   21.4650 C   0  0  0  0  0  0  0  0  0  0  0  0
   27.9020   13.6840   22.7440 C   0  0  0  0  0  0  0  0  0  0  0  0
   26.6530   13.0710   22.6400 C   0  0  0  0  0  0  0  0  0  0  0  0
   28.1730   14.6670   23.6960 C   0  0  0  0  0  0  0  0  0  0  0  0
   17.5170   12.9190   25.5970 H   0  0  0  0  0  0  0  0  0  0  0  0
   19.0800   13.5910   26.0910 H   0  0  0  0  0  0  0  0  0  0  0  0
   18.0380   12.7940   27.2860 H   0  0  0  0  0  0  0  0  0  0  0  0
   19.3340   11.4380   24.8820 H   0  0  0  0  0  0  0  0  0  0  0  0
   18.3090   10.6230   26.0490 H   0  0  0  0  0  0  0  0  0  0  0  0
   19.9140   10.6330   27.7570 H   0  0  0  0  0  0  0  0  0  0  0  0
   20.7730   12.0670   27.1450 H   0  0  0  0  0  0  0  0  0  0  0  0
   20.7400    9.5360   25.5980 H   0  0  0  0  0  0  0  0  0  0  0  0
   21.7820    9.7490   26.8490 H   0  0  0  0  0  0  0  0  0  0  0  0
   21.5360   11.7930   24.7520 H   0  0  0  0  0  0  0  0  0  0  0  0
   22.9550   11.4040   25.7740 H   0  0  0  0  0  0  0  0  0  0  0  0
   23.3110    9.3050   24.5620 H   0  0  0  0  0  0  0  0  0  0  0  0
   20.9410    9.5980   23.0540 H   0  0  0  0  0  0  0  0  0  0  0  0
   22.3810   11.4050   22.5290 H   0  0  0  0  0  0  0  0  0  0  0  0
   23.9860    8.8610   22.1310 H   0  0  0  0  0  0  0  0  0  0  0  0
   22.5210    9.3500   21.2950 H   0  0  0  0  0  0  0  0  0  0  0  0
   22.9090   11.9970   20.2570 H   0  0  0  0  0  0  0  0  0  0  0  0
   24.3420   13.0750   18.5830 H   0  0  0  0  0  0  0  0  0  0  0  0
   26.5200   12.0770   17.9740 H   0  0  0  0  0  0  0  0  0  0  0  0
   27.2600    9.9770   19.0530 H   0  0  0  0  0  0  0  0  0  0  0  0
   25.8550    8.8910   20.7470 H   0  0  0  0  0  0  0  0  0  0  0  0
   25.2260   10.9720   23.2640 H   0  0  0  0  0  0  0  0  0  0  0  0
   25.0520   14.8060   25.0800 H   0  0  0  0  0  0  0  0  0  0  0  0
   27.0700   17.8140   24.3270 H   0  0  0  0  0  0  0  0  0  0  0  0
   26.8140   18.1040   26.0590 H   0  0  0  0  0  0  0  0  0  0  0  0
   25.5690   17.2940   25.1260 H   0  0  0  0  0  0  0  0  0  0  0  0
   29.4310   17.5730   24.9770 H   0  0  0  0  0  0  0  0  0  0  0  0
   30.6490   17.0700   26.1340 H   0  0  0  0  0  0  0  0  0  0  0  0
   31.1760   16.3070   23.8650 H   0  0  0  0  0  0  0  0  0  0  0  0
   31.0650   15.0120   25.0370 H   0  0  0  0  0  0  0  0  0  0  0  0
   31.0450   14.2210   22.0960 H   0  0  0  0  0  0  0  0  0  0  0  0
   28.3270   12.5080   20.3580 H   0  0  0  0  0  0  0  0  0  0  0  0
   30.0430   12.8900   20.3170 H   0  0  0  0  0  0  0  0  0  0  0  0
   28.7750   10.7290   22.0950 H   0  0  0  0  0  0  0  0  0  0  0  0
   30.4950   11.1380   22.0600 H   0  0  0  0  0  0  0  0  0  0  0  0
   29.7200   10.4460   20.6240 H   0  0  0  0  0  0  0  0  0  0  0  0
   26.4760   12.3110   21.8860 H   0  0  0  0  0  0  0  0  0  0  0  0
  1  2  1  0  0  0  0
  1 37  1  0  0  0  0
  1 38  1  0  0  0  0
  1 39  1  0  0  0  0
  2  3  1  0  0  0  0
  2 40  1  0  0  0  0
  2 41  1  0  0  0  0
  3  4  1  0  0  0  0
  3 42  1  0  0  0  0
  3 43  1  0  0  0  0
  4  5  1  0  0  0  0
  4 44  1  0  0  0  0
  4 45  1  0  0  0  0
  5  6  1  0  0  0  0
  5 46  1  0  0  0  0
  5 47  1  0  0  0  0
  6  7  1  0  0  0  0
  6  8  1  0  0  0  0
  6 48  1  0  0  0  0
  7 49  1  0  0  0  0
  8  9  1  0  0  0  0
  8 16  1  0  0  0  0
  8 50  1  0  0  0  0
  9 10  1  0  0  0  0
  9 51  1  0  0  0  0
  9 52  1  0  0  0  0
 10 11  1  0  0  0  0
 10 15  2  0  0  0  0
 11 12  2  0  0  0  0
 11 53  1  0  0  0  0
 12 13  1  0  0  0  0
 12 54  1  0  0  0  0
 13 14  2  0  0  0  0
 13 55  1  0  0  0  0
 14 15  1  0  0  0  0
 14 56  1  0  0  0  0
 15 57  1  0  0  0  0
 16 17  1  0  0  0  0
 16 58  1  0  0  0  0
 17 18  2  0  0  0  0
 17 19  1  0  0  0  0
 19 20  2  0  0  0  0
 19 35  1  0  0  0  0
 20 21  1  0  0  0  0
 20 59  1  0  0  0  0
 21 22  1  0  0  0  0
 21 36  2  0  0  0  0
 22 23  1  0  0  0  0
 22 24  1  0  0  0  0
 23 60  1  0  0  0  0
 23 61  1  0  0  0  0
 23 62  1  0  0  0  0
 24 25  2  0  0  0  0
 24 26  2  0  0  0  0
 24 27  1  0  0  0  0
 27 28  1  0  0  0  0
 27 63  1  0  0  0  0
 27 64  1  0  0  0  0
 28 29  1  0  0  0  0
 28 65  1  0  0  0  0
 28 66  1  0  0  0  0
 29 30  2  0  0  0  0
 29 36  1  0  0  0  0
 30 31  1  0  0  0  0
 30 67  1  0  0  0  0
 31 32  1  0  0  0  0
 31 34  1  0  0  0  0
 32 33  1  0  0  0  0
 32 68  1  0  0  0  0
 32 69  1  0  0  0  0
 33 70  1  0  0  0  0
 33 71  1  0  0  0  0
 33 72  1  0  0  0  0
 34 35  2  0  0  0  0
 34 36  1  0  0  0  0
 35 73  1  0  0  0  0
M  CHG  1   4   1
M  END
>  <PARENT_CMPD_ID>
CHEMBL558273

>  <STANDARD_TYPE>
IC50

>  <RELATION>
=

>  <STANDARD_VALUE>
8

>  <STANDARD_UNITS>
nM

>  <COMPOUND_KEY>
22

>  <PUBMED_ID>
19406640

>  <JOURNAL>
Bioorg. Med. Chem. Lett.

>  <YEAR>
2009

>  <VOLUME>
19

>  <FIRST_PAGE>
3674

>  <Company>
GSK

>  <idx>
369

>  <Model>
Valid

>  <target>
8.0969105

>  <des_pred_mlr>
6.6696501

>  <RF_Canvas>
7.5492697

>  <DNN_Canvas>
7.3849592

>  <pred_CoMFA>
6.6025

>  <pred_COMSIA>
6.3666

>  <pred_abm5>
6.7096782

>  <pred_ff8>
7.8822298

>  <pred_gau6>
6.5393639

>  <CID>
BACE_369

>  <active>
1

>  <des_class_bayes>
0

>  <maacs_class_bayes>
1

>  <radial_class_bayes>
1

>  <dend_class_bayes>
1

>  <molprint_class_bayes>
1

>  <RF_canvas>
1

>  <DNN_canvas>
1

$$$$
CHEMBL556747
  MOE2015           3D

 78 82  0  0  1  0  0  0  0  0999 V2000
   29.3510   12.7540   20.0220 C   0  0  0  0  0  0  0  0  0  0  0  0
   29.6990   12.4730   21.4620 C   0  0  0  0  0  0  0  0  0  0  0  0
   29.2720   13.5670   22.3740 C   0  0  0  0  0  0  0  0  0  0  0  0
   30.0770   14.5420   22.9420 C   0  0  0  0  0  0  0  0  0  0  0  0
   29.3430   15.1840   23.8880 N   0  0  0  0  0  0  0  0  0  0  0  0
   29.7890   16.0940   24.9470 C   0  0  0  0  0  0  0  0  0  0  0  0
   28.6610   15.9540   26.3820 S   0  0  0  0  0  0  0  0  0  0  0  0
   28.7340   17.0130   27.3630 O   0  0  0  0  0  0  0  0  0  0  0  0
   28.6360   14.5740   26.8270 O   0  0  0  0  0  0  0  0  0  0  0  0
   27.1870   16.2430   25.5090 N   0  0  0  0  0  0  0  0  0  0  0  0
   26.0760   16.8280   26.2590 C   0  0  0  0  0  0  0  0  0  0  0  0
   26.9480   15.2160   24.5490 C   0  0  0  0  0  0  0  0  0  0  0  0
   25.7350   14.5690   24.3820 C   0  0  0  0  0  0  0  0  0  0  0  0
   25.6300   13.4910   23.5130 C   0  0  0  0  0  0  0  0  0  0  0  0
   26.7280   13.0780   22.7440 C   0  0  0  0  0  0  0  0  0  0  0  0
   27.9610   13.7380   22.8970 C   0  0  0  0  0  0  0  0  0  0  0  0
   28.0290   14.7880   23.7880 C   0  0  0  0  0  0  0  0  0  0  0  0
   24.3120   12.8160   23.4320 C   0  0  0  0  0  0  0  0  0  0  0  0
   23.2710   13.4510   23.5470 O   0  0  0  0  0  0  0  0  0  0  0  0
   24.3360   11.4600   23.2070 N   0  0  0  0  0  0  0  0  0  0  0  0
   23.1310   10.7000   22.8880 C   0  0  3  0  0  0  0  0  0  0  0  0
   23.4270    9.7510   21.7050 C   0  0  0  0  0  0  0  0  0  0  0  0
   24.2680   10.3880   20.6270 C   0  0  0  0  0  0  0  0  0  0  0  0
   25.4960    9.8300   20.2740 C   0  0  0  0  0  0  0  0  0  0  0  0
   26.3030   10.4440   19.3260 C   0  0  0  0  0  0  0  0  0  0  0  0
   25.8910   11.6200   18.7190 C   0  0  0  0  0  0  0  0  0  0  0  0
   24.6690   12.1800   19.0560 C   0  0  0  0  0  0  0  0  0  0  0  0
   23.8570   11.5630   19.9970 C   0  0  0  0  0  0  0  0  0  0  0  0
   22.5860    9.9590   24.1280 C   0  0  3  0  0  0  0  0  0  0  0  0
   21.4370    9.1610   23.8070 O   0  0  0  0  0  0  0  0  0  0  0  0
   22.1310   10.9370   25.2150 C   0  0  0  0  0  0  0  0  0  0  0  0
   21.3120   10.1530   26.2010 N   0  3  0  0  0  0  0  0  0  0  0  0
   20.3980   10.9520   27.0600 C   0  0  0  0  0  0  0  0  0  0  0  0
   19.2410   11.5720   26.3300 C   0  0  0  0  0  0  0  0  0  0  0  0
   19.0130   12.9440   26.3990 C   0  0  0  0  0  0  0  0  0  0  0  0
   17.9580   13.5190   25.7030 C   0  0  0  0  0  0  0  0  0  0  0  0
   17.1150   12.7320   24.9270 C   0  0  0  0  0  0  0  0  0  0  0  0
   17.3160   11.3600   24.8550 C   0  0  0  0  0  0  0  0  0  0  0  0
   16.5720   10.4700   24.1350 O   0  0  0  0  0  0  0  0  0  0  0  0
   15.5240   11.0020   23.3440 C   0  0  0  0  0  0  0  0  0  0  0  0
   18.3690   10.7890   25.5700 C   0  0  0  0  0  0  0  0  0  0  0  0
   29.6330   11.9080   19.3870 H   0  0  0  0  0  0  0  0  0  0  0  0
   29.8790   13.6410   19.6560 H   0  0  0  0  0  0  0  0  0  0  0  0
   28.2800   12.9350   19.8930 H   0  0  0  0  0  0  0  0  0  0  0  0
   30.7810   12.3180   21.5490 H   0  0  0  0  0  0  0  0  0  0  0  0
   29.2290   11.5310   21.7730 H   0  0  0  0  0  0  0  0  0  0  0  0
   31.1350   14.7360   22.8200 H   0  0  0  0  0  0  0  0  0  0  0  0
   29.7660   17.1170   24.5650 H   0  0  0  0  0  0  0  0  0  0  0  0
   30.7890   15.7970   25.2700 H   0  0  0  0  0  0  0  0  0  0  0  0
   25.2640   17.1180   25.5850 H   0  0  0  0  0  0  0  0  0  0  0  0
   26.3900   17.7460   26.7650 H   0  0  0  0  0  0  0  0  0  0  0  0
   25.6890   16.1240   27.0030 H   0  0  0  0  0  0  0  0  0  0  0  0
   24.8660   14.8640   24.9640 H   0  0  0  0  0  0  0  0  0  0  0  0
   26.6440   12.2600   22.0350 H   0  0  0  0  0  0  0  0  0  0  0  0
   25.2230   10.9670   23.2380 H   0  0  0  0  0  0  0  0  0  0  0  0
   22.3590   11.4020   22.5460 H   0  0  0  0  0  0  0  0  0  0  0  0
   23.9450    8.8610   22.0850 H   0  0  0  0  0  0  0  0  0  0  0  0
   22.4910    9.3950   21.2590 H   0  0  0  0  0  0  0  0  0  0  0  0
   25.8440    8.9120   20.7410 H   0  0  0  0  0  0  0  0  0  0  0  0
   27.2610   10.0040   19.0600 H   0  0  0  0  0  0  0  0  0  0  0  0
   26.5210   12.0990   17.9750 H   0  0  0  0  0  0  0  0  0  0  0  0
   24.3380   13.0950   18.5710 H   0  0  0  0  0  0  0  0  0  0  0  0
   22.8980   12.0160   20.2400 H   0  0  0  0  0  0  0  0  0  0  0  0
   23.3480    9.2860   24.5400 H   0  0  0  0  0  0  0  0  0  0  0  0
   21.7080    8.4540   23.1910 H   0  0  0  0  0  0  0  0  0  0  0  0
   21.4760   11.7050   24.7920 H   0  0  0  0  0  0  0  0  0  0  0  0
   22.9600   11.4000   25.7580 H   0  0  0  0  0  0  0  0  0  0  0  0
   20.7800    9.4960   25.6010 H   0  0  0  0  0  0  0  0  0  0  0  0
   21.9250    9.5660   26.7780 H   0  0  0  0  0  0  0  0  0  0  0  0
   20.0150   10.2650   27.8230 H   0  0  0  0  0  0  0  0  0  0  0  0
   21.0160   11.7010   27.5660 H   0  0  0  0  0  0  0  0  0  0  0  0
   19.6620   13.5900   26.9890 H   0  0  0  0  0  0  0  0  0  0  0  0
   17.7910   14.5930   25.7600 H   0  0  0  0  0  0  0  0  0  0  0  0
   16.3060   13.2220   24.3940 H   0  0  0  0  0  0  0  0  0  0  0  0
   14.7620   11.4800   23.9670 H   0  0  0  0  0  0  0  0  0  0  0  0
   15.0460   10.1710   22.8160 H   0  0  0  0  0  0  0  0  0  0  0  0
   15.9090   11.6960   22.5890 H   0  0  0  0  0  0  0  0  0  0  0  0
   18.4960    9.7100   25.5110 H   0  0  0  0  0  0  0  0  0  0  0  0
  1  2  1  0  0  0  0
  1 42  1  0  0  0  0
  1 43  1  0  0  0  0
  1 44  1  0  0  0  0
  2  3  1  0  0  0  0
  2 45  1  0  0  0  0
  2 46  1  0  0  0  0
  3  4  2  0  0  0  0
  3 16  1  0  0  0  0
  4  5  1  0  0  0  0
  4 47  1  0  0  0  0
  5  6  1  0  0  0  0
  5 17  1  0  0  0  0
  6  7  1  0  0  0  0
  6 48  1  0  0  0  0
  6 49  1  0  0  0  0
  7  8  2  0  0  0  0
  7  9  2  0  0  0  0
  7 10  1  0  0  0  0
 10 11  1  0  0  0  0
 10 12  1  0  0  0  0
 11 50  1  0  0  0  0
 11 51  1  0  0  0  0
 11 52  1  0  0  0  0
 12 13  1  0  0  0  0
 12 17  2  0  0  0  0
 13 14  2  0  0  0  0
 13 53  1  0  0  0  0
 14 15  1  0  0  0  0
 14 18  1  0  0  0  0
 15 16  2  0  0  0  0
 15 54  1  0  0  0  0
 16 17  1  0  0  0  0
 18 19  2  0  0  0  0
 18 20  1  0  0  0  0
 20 21  1  0  0  0  0
 20 55  1  0  0  0  0
 21 22  1  0  0  0  0
 21 29  1  0  0  0  0
 21 56  1  0  0  0  0
 22 23  1  0  0  0  0
 22 57  1  0  0  0  0
 22 58  1  0  0  0  0
 23 24  1  0  0  0  0
 23 28  2  0  0  0  0
 24 25  2  0  0  0  0
 24 59  1  0  0  0  0
 25 26  1  0  0  0  0
 25 60  1  0  0  0  0
 26 27  2  0  0  0  0
 26 61  1  0  0  0  0
 27 28  1  0  0  0  0
 27 62  1  0  0  0  0
 28 63  1  0  0  0  0
 29 30  1  0  0  0  0
 29 31  1  0  0  0  0
 29 64  1  0  0  0  0
 30 65  1  0  0  0  0
 31 32  1  0  0  0  0
 31 66  1  0  0  0  0
 31 67  1  0  0  0  0
 32 33  1  0  0  0  0
 32 68  1  0  0  0  0
 32 69  1  0  0  0  0
 33 34  1  0  0  0  0
 33 70  1  0  0  0  0
 33 71  1  0  0  0  0
 34 35  1  0  0  0  0
 34 41  2  0  0  0  0
 35 36  2  0  0  0  0
 35 72  1  0  0  0  0
 36 37  1  0  0  0  0
 36 73  1  0  0  0  0
 37 38  2  0  0  0  0
 37 74  1  0  0  0  0
 38 39  1  0  0  0  0
 38 41  1  0  0  0  0
 39 40  1  0  0  0  0
 40 75  1  0  0  0  0
 40 76  1  0  0  0  0
 40 77  1  0  0  0  0
 41 78  1  0  0  0  0
M  CHG  1  32   1
M  END
>  <PARENT_CMPD_ID>
CHEMBL556747

>  <STANDARD_TYPE>
IC50

>  <RELATION>
=

>  <STANDARD_VALUE>
8

>  <STANDARD_UNITS>
nM

>  <COMPOUND_KEY>
21

>  <PUBMED_ID>
19477642

>  <JOURNAL>
Bioorg. Med. Chem. Lett.

>  <YEAR>
2009

>  <VOLUME>
19

>  <FIRST_PAGE>
3669

>  <Company>
GSK

>  <idx>
370

>  <Model>
Valid

>  <target>
8.0969105

>  <des_pred_mlr>
7.2505102

>  <RF_Canvas>
8.1325769

>  <DNN_Canvas>
7.5666203

>  <pred_CoMFA>
7.3000002

>  <pred_COMSIA>
7.4189

>  <pred_abm5>
7.4167967

>  <pred_ff8>
7.7532172

>  <pred_gau6>
7.0201283

>  <CID>
BACE_370

>  <active>
1

>  <des_class_bayes>
1

>  <maacs_class_bayes>
1

>  <radial_class_bayes>
1

>  <dend_class_bayes>
1

>  <molprint_class_bayes>
1

>  <RF_canvas>
1

>  <DNN_canvas>
1

$$$$
CHEMBL1210344
  MOE2015           3D

 87 90  0  0  1  0  0  0  0  0999 V2000
   20.9260   12.3020   27.6030 C   0  0  0  0  0  0  0  0  0  0  0  0
   20.2640   11.1570   26.8570 C   0  0  3  0  0  0  0  0  0  0  0  0
   21.2670   10.3660   26.1000 N   0  3  0  0  0  0  0  0  0  0  0  0
   21.8970   11.1270   25.0050 C   0  0  0  0  0  0  0  0  0  0  0  0
   22.4530   10.1390   23.9780 C   0  0  3  0  0  0  0  0  0  0  0  0
   21.3320    9.3440   23.5740 O   0  0  0  0  0  0  0  0  0  0  0  0
   23.1060   10.8440   22.7960 C   0  0  3  0  0  0  0  0  0  0  0  0
   23.4280    9.8950   21.6440 C   0  0  0  0  0  0  0  0  0  0  0  0
   24.3110   10.5370   20.6000 C   0  0  0  0  0  0  0  0  0  0  0  0
   23.9700   11.7390   19.9960 C   0  0  0  0  0  0  0  0  0  0  0  0
   24.8050   12.3030   19.0450 C   0  0  0  0  0  0  0  0  0  0  0  0
   25.9840   11.6730   18.6870 C   0  0  0  0  0  0  0  0  0  0  0  0
   26.3250   10.4770   19.2830 C   0  0  0  0  0  0  0  0  0  0  0  0
   25.4930    9.9130   20.2330 C   0  0  0  0  0  0  0  0  0  0  0  0
   24.3240   11.5430   23.2230 N   0  0  0  0  0  0  0  0  0  0  0  0
   24.3340   12.9010   23.3860 C   0  0  0  0  0  0  0  0  0  0  0  0
   23.3260   13.6080   23.3880 O   0  0  0  0  0  0  0  0  0  0  0  0
   25.6870   13.4610   23.5640 C   0  0  0  0  0  0  0  0  0  0  0  0
   26.7520   12.9530   22.8410 C   0  0  0  0  0  0  0  0  0  0  0  0
   28.0260   13.4740   23.0230 C   0  0  0  0  0  0  0  0  0  0  0  0
   28.2310   14.5110   23.9240 C   0  0  0  0  0  0  0  0  0  0  0  0
   27.1480   15.0100   24.6360 C   0  0  0  0  0  0  0  0  0  0  0  0
   25.8780   14.4890   24.4640 C   0  0  0  0  0  0  0  0  0  0  0  0
   27.2970   16.0860   25.5750 N   0  0  0  0  0  0  0  0  0  0  0  0
   26.4820   17.2510   25.3990 C   0  0  0  0  0  0  0  0  0  0  0  0
   26.6630   18.0220   24.2710 C   0  0  0  0  0  0  0  0  0  0  0  0
   25.8640   19.1370   24.1070 C   0  0  0  0  0  0  0  0  0  0  0  0
   24.9250   19.4590   25.0620 C   0  0  0  0  0  0  0  0  0  0  0  0
   24.7560   18.6790   26.1830 C   0  0  0  0  0  0  0  0  0  0  0  0
   25.5390   17.5590   26.3600 C   0  0  0  0  0  0  0  0  0  0  0  0
   25.4180   16.9340   27.2330 H   0  0  0  0  0  0  0  0  0  0  0  0
   28.6320   16.2090   26.6040 S   0  0  0  0  0  0  0  0  0  0  0  0
   29.7320   17.2750   25.7120 C   0  0  0  0  0  0  0  0  0  0  0  0
   29.2570   14.9140   26.6820 O   0  0  0  0  0  0  0  0  0  0  0  0
   28.2360   16.9430   27.7840 O   0  0  0  0  0  0  0  0  0  0  0  0
   19.1940   11.6850   25.9180 C   0  0  0  0  0  0  0  0  0  0  0  0
   19.1500   12.8440   25.5090 O   0  0  0  0  0  0  0  0  0  0  0  0
   18.2590   10.7320   25.5800 N   0  0  0  0  0  0  0  0  0  0  0  0
   17.1780   11.0790   24.6520 C   0  0  0  0  0  0  0  0  0  0  0  0
   16.9820    9.9360   23.6870 C   0  0  0  0  0  0  0  0  0  0  0  0
   15.8540   10.1920   22.6900 C   0  0  0  0  0  0  0  0  0  0  0  0
   14.5580   10.4610   23.4320 C   0  0  0  0  0  0  0  0  0  0  0  0
   14.7700   11.6410   24.3720 C   0  0  0  0  0  0  0  0  0  0  0  0
   15.8730   11.3210   25.3830 C   0  0  0  0  0  0  0  0  0  0  0  0
   21.6900   11.9060   28.2720 H   0  0  0  0  0  0  0  0  0  0  0  0
   20.1760   12.8380   28.1850 H   0  0  0  0  0  0  0  0  0  0  0  0
   21.3860   12.9840   26.8880 H   0  0  0  0  0  0  0  0  0  0  0  0
   19.7950   10.5010   27.5910 H   0  0  0  0  0  0  0  0  0  0  0  0
   20.8080    9.5570   25.7070 H   0  0  0  0  0  0  0  0  0  0  0  0
   21.9890   10.0660   26.7400 H   0  0  0  0  0  0  0  0  0  0  0  0
   22.7070   11.7380   25.4020 H   0  0  0  0  0  0  0  0  0  0  0  0
   21.1550   11.7700   24.5310 H   0  0  0  0  0  0  0  0  0  0  0  0
   23.2470    9.5260   24.4060 H   0  0  0  0  0  0  0  0  0  0  0  0
   20.6720    9.9370   23.2080 H   0  0  0  0  0  0  0  0  0  0  0  0
   22.3790   11.5660   22.4250 H   0  0  0  0  0  0  0  0  0  0  0  0
   22.4950    9.5870   21.1720 H   0  0  0  0  0  0  0  0  0  0  0  0
   23.9390    9.0190   22.0440 H   0  0  0  0  0  0  0  0  0  0  0  0
   23.0510   12.2360   20.2680 H   0  0  0  0  0  0  0  0  0  0  0  0
   24.5340   13.2400   18.5800 H   0  0  0  0  0  0  0  0  0  0  0  0
   26.6330   12.1150   17.9460 H   0  0  0  0  0  0  0  0  0  0  0  0
   27.2430    9.9800   19.0070 H   0  0  0  0  0  0  0  0  0  0  0  0
   25.7670    8.9760   20.6940 H   0  0  0  0  0  0  0  0  0  0  0  0
   25.1660   11.0140   23.3990 H   0  0  0  0  0  0  0  0  0  0  0  0
   26.5920   12.1510   22.1350 H   0  0  0  0  0  0  0  0  0  0  0  0
   28.8580   13.0730   22.4640 H   0  0  0  0  0  0  0  0  0  0  0  0
   29.2190   14.9230   24.0690 H   0  0  0  0  0  0  0  0  0  0  0  0
   25.0450   14.8830   25.0280 H   0  0  0  0  0  0  0  0  0  0  0  0
   27.4090   17.7620   23.5350 H   0  0  0  0  0  0  0  0  0  0  0  0
   25.9760   19.7570   23.2290 H   0  0  0  0  0  0  0  0  0  0  0  0
   24.3120   20.3380   24.9290 H   0  0  0  0  0  0  0  0  0  0  0  0
   30.0680   16.7730   24.8040 H   0  0  0  0  0  0  0  0  0  0  0  0
   30.5940   17.5120   26.3360 H   0  0  0  0  0  0  0  0  0  0  0  0
   29.2110   18.1950   25.4470 H   0  0  0  0  0  0  0  0  0  0  0  0
   18.3170    9.8010   25.9680 H   0  0  0  0  0  0  0  0  0  0  0  0
   17.4570   11.9950   24.1300 H   0  0  0  0  0  0  0  0  0  0  0  0
   16.7470    9.0360   24.2560 H   0  0  0  0  0  0  0  0  0  0  0  0
   17.9090    9.7840   23.1330 H   0  0  0  0  0  0  0  0  0  0  0  0
   15.7300    9.3170   22.0520 H   0  0  0  0  0  0  0  0  0  0  0  0
   16.1040   11.0570   22.0750 H   0  0  0  0  0  0  0  0  0  0  0  0
   14.2750    9.5800   24.0080 H   0  0  0  0  0  0  0  0  0  0  0  0
   13.7690   10.6980   22.7180 H   0  0  0  0  0  0  0  0  0  0  0  0
   13.8420   11.8480   24.9050 H   0  0  0  0  0  0  0  0  0  0  0  0
   15.0580   12.5170   23.7910 H   0  0  0  0  0  0  0  0  0  0  0  0
   15.9910   12.1600   26.0680 H   0  0  0  0  0  0  0  0  0  0  0  0
   15.6010   10.4280   25.9460 H   0  0  0  0  0  0  0  0  0  0  0  0
   23.8200   19.0120   27.1120 C   0  0  0  0  0  0  0  0  0  0  0  0
   23.0220   19.2960   27.9050 N   0  0  0  0  0  0  0  0  0  0  0  0
  1  2  1  0  0  0  0
  1 45  1  0  0  0  0
  1 46  1  0  0  0  0
  1 47  1  0  0  0  0
  2  3  1  0  0  0  0
  2 36  1  0  0  0  0
  2 48  1  0  0  0  0
  3  4  1  0  0  0  0
  3 49  1  0  0  0  0
  3 50  1  0  0  0  0
  4  5  1  0  0  0  0
  4 51  1  0  0  0  0
  4 52  1  0  0  0  0
  5  6  1  0  0  0  0
  5  7  1  0  0  0  0
  5 53  1  0  0  0  0
  6 54  1  0  0  0  0
  7  8  1  0  0  0  0
  7 15  1  0  0  0  0
  7 55  1  0  0  0  0
  8  9  1  0  0  0  0
  8 56  1  0  0  0  0
  8 57  1  0  0  0  0
  9 10  1  0  0  0  0
  9 14  2  0  0  0  0
 10 11  2  0  0  0  0
 10 58  1  0  0  0  0
 11 12  1  0  0  0  0
 11 59  1  0  0  0  0
 12 13  2  0  0  0  0
 12 60  1  0  0  0  0
 13 14  1  0  0  0  0
 13 61  1  0  0  0  0
 14 62  1  0  0  0  0
 15 16  1  0  0  0  0
 15 63  1  0  0  0  0
 16 17  2  0  0  0  0
 16 18  1  0  0  0  0
 18 19  1  0  0  0  0
 18 23  2  0  0  0  0
 19 20  2  0  0  0  0
 19 64  1  0  0  0  0
 20 21  1  0  0  0  0
 20 65  1  0  0  0  0
 21 22  2  0  0  0  0
 21 66  1  0  0  0  0
 22 23  1  0  0  0  0
 22 24  1  0  0  0  0
 23 67  1  0  0  0  0
 24 25  1  0  0  0  0
 24 32  1  0  0  0  0
 25 26  1  0  0  0  0
 25 30  2  0  0  0  0
 26 27  2  0  0  0  0
 26 68  1  0  0  0  0
 27 28  1  0  0  0  0
 27 69  1  0  0  0  0
 28 29  2  0  0  0  0
 28 70  1  0  0  0  0
 29 30  1  0  0  0  0
 29 86  1  0  0  0  0
 30 31  1  0  0  0  0
 32 33  1  0  0  0  0
 32 34  2  0  0  0  0
 32 35  2  0  0  0  0
 33 71  1  0  0  0  0
 33 72  1  0  0  0  0
 33 73  1  0  0  0  0
 36 37  2  0  0  0  0
 36 38  1  0  0  0  0
 38 39  1  0  0  0  0
 38 74  1  0  0  0  0
 39 40  1  0  0  0  0
 39 44  1  0  0  0  0
 39 75  1  0  0  0  0
 40 41  1  0  0  0  0
 40 76  1  0  0  0  0
 40 77  1  0  0  0  0
 41 42  1  0  0  0  0
 41 78  1  0  0  0  0
 41 79  1  0  0  0  0
 42 43  1  0  0  0  0
 42 80  1  0  0  0  0
 42 81  1  0  0  0  0
 43 44  1  0  0  0  0
 43 82  1  0  0  0  0
 43 83  1  0  0  0  0
 44 84  1  0  0  0  0
 44 85  1  0  0  0  0
 86 87  3  0  0  0  0
M  CHG  1   3   1
M  END
>  <PARENT_CMPD_ID>
CHEMBL1210344

>  <STANDARD_TYPE>
IC50

>  <RELATION>
=

>  <STANDARD_VALUE>
8

>  <STANDARD_UNITS>
nM

>  <COMPOUND_KEY>
23

>  <PUBMED_ID>
20579874

>  <JOURNAL>
Bioorg. Med. Chem. Lett.

>  <YEAR>
2010

>  <VOLUME>
20

>  <FIRST_PAGE>
4639

>  <Company>
GSK

>  <idx>
371

>  <Model>
Valid

>  <target>
8.0969105

>  <des_pred_mlr>
7.5669699

>  <RF_Canvas>
7.8943639

>  <DNN_Canvas>
7.5390906

>  <pred_CoMFA>
7.9214001

>  <pred_COMSIA>
8.2638998

>  <pred_abm5>
7.7845826

>  <pred_ff8>
8.5197287

>  <pred_gau6>
7.9829454

>  <CID>
BACE_371

>  <active>
1

>  <des_class_bayes>
1

>  <maacs_class_bayes>
1

>  <radial_class_bayes>
1

>  <dend_class_bayes>
1

>  <molprint_class_bayes>
1

>  <RF_canvas>
1

>  <DNN_canvas>
1

$$$$
22380629_46b
  MOE2015           3D
HYDROLASE/HYDROLASE INHIBITOR
 73 75  0  0  1  0  0  0  0  0999 V2000
   28.8350   10.4860   21.1700 C   0  0  0  0  0  0  0  0  0  0  0  0
   28.4750    9.7720   21.9170 H   0  0  0  0  0  0  0  0  0  0  0  0
   29.8360   10.1700   20.8620 H   0  0  0  0  0  0  0  0  0  0  0  0
   28.9180   11.4630   21.6560 H   0  0  0  0  0  0  0  0  0  0  0  0
   27.9080   10.5510   19.9670 C   0  0  0  0  0  0  0  0  0  0  0  0
   28.3980   11.1440   19.1900 H   0  0  0  0  0  0  0  0  0  0  0  0
   27.8390    9.5430   19.5350 H   0  0  0  0  0  0  0  0  0  0  0  0
   26.4700   11.0250   20.1910 C   0  0  0  0  0  0  0  0  0  0  0  0
   25.8370   11.9820   19.3760 C   0  0  0  0  0  0  0  0  0  0  0  0
   24.4370   12.0520   19.3420 C   0  0  0  0  0  0  0  0  0  0  0  0
   23.6610   11.3330   20.2300 C   0  0  0  0  0  0  0  0  0  0  0  0
   22.5830   11.4620   20.2160 H   0  0  0  0  0  0  0  0  0  0  0  0
   24.2810   10.5030   21.1570 C   0  0  0  0  0  0  0  0  0  0  0  0
   25.6680   10.3200   21.0940 C   0  0  0  0  0  0  0  0  0  0  0  0
   26.1340    9.5880   21.7520 H   0  0  0  0  0  0  0  0  0  0  0  0
   23.4940    9.8250   22.2400 C   0  0  0  0  0  0  0  0  0  0  0  0
   24.1280    9.0990   22.7660 H   0  0  0  0  0  0  0  0  0  0  0  0
   22.6980    9.2350   21.7670 H   0  0  0  0  0  0  0  0  0  0  0  0
   22.9000   10.8150   23.2550 C   0  0  3  0  0  0  0  0  0  0  0  0
   22.1310   11.3940   22.7250 H   0  0  0  0  0  0  0  0  0  0  0  0
   22.2070   10.0580   24.4100 C   0  0  3  0  0  0  0  0  0  0  0  0
   22.9380    9.4340   24.9390 H   0  0  0  0  0  0  0  0  0  0  0  0
   21.5080   11.0070   25.4080 C   0  0  3  0  0  0  0  0  0  0  0  0
   20.7030   11.5230   24.8730 H   0  0  0  0  0  0  0  0  0  0  0  0
   22.4430   11.9930   26.0730 C   0  0  0  0  0  0  0  0  0  0  0  0
   23.2420   11.4930   26.6290 H   0  0  0  0  0  0  0  0  0  0  0  0
   21.9150   12.6670   26.7540 H   0  0  0  0  0  0  0  0  0  0  0  0
   23.2000   13.0130   24.8370 S   0  0  0  0  0  0  0  0  0  0  0  0
   23.9540   11.7830   23.8020 C   0  0  0  0  0  0  0  0  0  0  0  0
   24.4570   12.3480   23.0110 H   0  0  0  0  0  0  0  0  0  0  0  0
   24.7160   11.2660   24.3940 H   0  0  0  0  0  0  0  0  0  0  0  0
   22.1530   13.6510   24.0690 O   0  0  0  0  0  0  0  0  0  0  0  0
   24.2380   13.7950   25.4680 O   0  0  0  0  0  0  0  0  0  0  0  0
   20.8330   10.1290   26.4430 N   0  3  0  0  0  0  0  0  0  0  0  0
   21.5230    9.6480   27.0350 H   0  0  0  0  0  0  0  0  0  0  0  0
   20.3910    9.3720   25.8890 H   0  0  0  0  0  0  0  0  0  0  0  0
   19.7900   10.7640   27.3060 C   0  0  0  0  0  0  0  0  0  0  0  0
   20.3100   11.4530   27.9810 H   0  0  0  0  0  0  0  0  0  0  0  0
   19.3730    9.9610   27.9250 H   0  0  0  0  0  0  0  0  0  0  0  0
   18.6920   11.4470   26.5470 C   0  0  0  0  0  0  0  0  0  0  0  0
   17.7840   10.7000   25.7890 C   0  0  0  0  0  0  0  0  0  0  0  0
   17.8730    9.6150   25.7870 H   0  0  0  0  0  0  0  0  0  0  0  0
   16.7700   11.3030   25.0320 C   0  0  0  0  0  0  0  0  0  0  0  0
   16.7040   12.6970   25.0550 C   0  0  0  0  0  0  0  0  0  0  0  0
   15.9530   13.2400   24.4870 H   0  0  0  0  0  0  0  0  0  0  0  0
   17.5970   13.4530   25.8060 C   0  0  0  0  0  0  0  0  0  0  0  0
   17.5180   14.5380   25.8050 H   0  0  0  0  0  0  0  0  0  0  0  0
   18.5850   12.8330   26.5510 C   0  0  0  0  0  0  0  0  0  0  0  0
   19.2720   13.4510   27.1260 H   0  0  0  0  0  0  0  0  0  0  0  0
   15.8070   10.4430   24.2110 C   0  0  0  0  0  0  0  0  0  0  0  0
   14.6650   11.2360   23.5580 C   0  0  0  0  0  0  0  0  0  0  0  0
   15.0390   11.9740   22.8390 H   0  0  0  0  0  0  0  0  0  0  0  0
   14.0620   11.7670   24.3050 H   0  0  0  0  0  0  0  0  0  0  0  0
   13.9850   10.5750   23.0060 H   0  0  0  0  0  0  0  0  0  0  0  0
   16.5840    9.7490   23.0860 C   0  0  0  0  0  0  0  0  0  0  0  0
   17.0740   10.4800   22.4320 H   0  0  0  0  0  0  0  0  0  0  0  0
   15.9220    9.1380   22.4620 H   0  0  0  0  0  0  0  0  0  0  0  0
   17.3650    9.0830   23.4720 H   0  0  0  0  0  0  0  0  0  0  0  0
   15.1520    9.3780   25.1030 C   0  0  0  0  0  0  0  0  0  0  0  0
   14.6330    9.8370   25.9530 H   0  0  0  0  0  0  0  0  0  0  0  0
   15.8760    8.6630   25.5090 H   0  0  0  0  0  0  0  0  0  0  0  0
   14.4150    8.7890   24.5440 H   0  0  0  0  0  0  0  0  0  0  0  0
   21.1930    9.1830   23.9070 O   0  0  0  0  0  0  0  0  0  0  0  0
   20.7640    9.5870   23.1290 H   0  0  0  0  0  0  0  0  0  0  0  0
   23.8210   12.8800   18.4900 F   0  0  0  0  0  0  0  0  0  0  0  0
   26.5370   12.9230   18.5980 N   0  0  0  0  0  0  0  0  0  0  0  0
   26.1220   13.1990   17.7140 H   0  0  0  0  0  0  0  0  0  0  0  0
   27.6880   13.5680   19.0500 C   0  0  0  0  0  0  0  0  0  0  0  0
   28.3710   14.3370   17.9490 C   0  0  0  0  0  0  0  0  0  0  0  0
   27.9290   15.3350   17.8790 H   0  0  0  0  0  0  0  0  0  0  0  0
   28.2600   13.8250   16.9880 H   0  0  0  0  0  0  0  0  0  0  0  0
   29.4370   14.4230   18.1730 H   0  0  0  0  0  0  0  0  0  0  0  0
   28.0930   13.6330   20.2130 O   0  0  0  0  0  0  0  0  0  0  0  0
  1  2  1  0  0  0  0
  1  3  1  0  0  0  0
  1  4  1  0  0  0  0
  1  5  1  0  0  0  0
  5  6  1  0  0  0  0
  5  7  1  0  0  0  0
  5  8  1  0  0  0  0
  8  9  1  0  0  0  0
  8 14  2  0  0  0  0
  9 10  2  0  0  0  0
  9 66  1  0  0  0  0
 10 11  1  0  0  0  0
 10 65  1  0  0  0  0
 11 12  1  0  0  0  0
 11 13  2  0  0  0  0
 13 14  1  0  0  0  0
 13 16  1  0  0  0  0
 14 15  1  0  0  0  0
 16 17  1  0  0  0  0
 16 18  1  0  0  0  0
 16 19  1  0  0  0  0
 19 20  1  0  0  0  0
 19 21  1  0  0  0  0
 19 29  1  0  0  0  0
 21 22  1  0  0  0  0
 21 23  1  0  0  0  0
 21 63  1  0  0  0  0
 23 24  1  0  0  0  0
 23 25  1  0  0  0  0
 23 34  1  0  0  0  0
 25 26  1  0  0  0  0
 25 27  1  0  0  0  0
 25 28  1  0  0  0  0
 28 29  1  0  0  0  0
 28 32  2  0  0  0  0
 28 33  2  0  0  0  0
 29 30  1  0  0  0  0
 29 31  1  0  0  0  0
 34 35  1  0  0  0  0
 34 36  1  0  0  0  0
 34 37  1  0  0  0  0
 37 38  1  0  0  0  0
 37 39  1  0  0  0  0
 37 40  1  0  0  0  0
 40 41  1  0  0  0  0
 40 48  2  0  0  0  0
 41 42  1  0  0  0  0
 41 43  2  0  0  0  0
 43 44  1  0  0  0  0
 43 50  1  0  0  0  0
 44 45  1  0  0  0  0
 44 46  2  0  0  0  0
 46 47  1  0  0  0  0
 46 48  1  0  0  0  0
 48 49  1  0  0  0  0
 50 51  1  0  0  0  0
 50 55  1  0  0  0  0
 50 59  1  0  0  0  0
 51 52  1  0  0  0  0
 51 53  1  0  0  0  0
 51 54  1  0  0  0  0
 55 56  1  0  0  0  0
 55 57  1  0  0  0  0
 55 58  1  0  0  0  0
 59 60  1  0  0  0  0
 59 61  1  0  0  0  0
 59 62  1  0  0  0  0
 63 64  1  0  0  0  0
 66 67  1  0  0  0  0
 66 68  1  0  0  0  0
 68 69  1  0  0  0  0
 68 73  2  0  0  0  0
 69 70  1  0  0  0  0
 69 71  1  0  0  0  0
 69 72  1  0  0  0  0
M  CHG  1  34   1
M  END
>  <PARENT_CMPD_ID>
22380629_46b

>  <STANDARD_TYPE>
IC50

>  <RELATION>
=

>  <STANDARD_VALUE>
8

>  <STANDARD_UNITS>
nM

>  <COMPOUND_KEY>
46b

>  <PUBMED_ID>
22380629

>  <JOURNAL>
J.Med.Chem.

>  <YEAR>
2012

>  <VOLUME>
55

>  <FIRST_PAGE>
3364

>  <Company>
Novartis

>  <idx>
372

>  <Model>
Valid

>  <target>
8.0969105

>  <des_pred_mlr>
6.9448299

>  <RF_Canvas>
7.3343349

>  <DNN_Canvas>
7.0542874

>  <pred_CoMFA>
7.6092

>  <pred_COMSIA>
7.4362001

>  <pred_abm5>
7.4681683

>  <pred_ff8>
7.6671362

>  <pred_gau6>
7.120544

>  <CID>
BACE_372

>  <active>
1

>  <des_class_bayes>
0

>  <maacs_class_bayes>
1

>  <radial_class_bayes>
0

>  <dend_class_bayes>
1

>  <molprint_class_bayes>
1

>  <RF_canvas>
1

>  <DNN_canvas>
1

$$$$
22468639_17
  MOE2015           3D

 77 81  0  0  1  0  0  0  0  0999 V2000
   21.0910   13.8350   29.2000 C   0  0  0  0  0  0  0  0  0  0  0  0
   22.1850   13.8420   29.1950 H   0  0  0  0  0  0  0  0  0  0  0  0
   20.7430   14.8750   29.1670 H   0  0  0  0  0  0  0  0  0  0  0  0
   20.4550   13.0160   30.3180 C   0  0  0  0  0  0  0  0  0  0  0  0
   20.0470   13.5910   31.1540 H   0  0  0  0  0  0  0  0  0  0  0  0
   21.1110   12.2330   30.7170 H   0  0  0  0  0  0  0  0  0  0  0  0
   19.4340   12.5030   29.3060 C   0  0  0  0  0  0  0  0  0  0  0  0
   18.4930   13.0650   29.3110 H   0  0  0  0  0  0  0  0  0  0  0  0
   19.1990   11.4380   29.3910 H   0  0  0  0  0  0  0  0  0  0  0  0
   20.4010   12.9100   28.1700 C   0  0  0  0  0  0  0  0  0  0  0  0
   21.3190   11.8360   27.6130 C   0  0  0  0  0  0  0  0  0  0  0  0
   21.8180   11.2710   28.4110 H   0  0  0  0  0  0  0  0  0  0  0  0
   22.1150   12.3310   27.0430 H   0  0  0  0  0  0  0  0  0  0  0  0
   19.8030   13.6350   27.0840 O   0  0  0  0  0  0  0  0  0  0  0  0
   19.1490   12.8960   26.1370 C   0  0  0  0  0  0  0  0  0  0  0  0
   18.2390   13.5890   25.4350 N   0  0  0  0  0  0  0  0  0  0  0  0
   17.5750   12.9220   24.4780 C   0  0  0  0  0  0  0  0  0  0  0  0
   16.8580   13.5250   23.9260 H   0  0  0  0  0  0  0  0  0  0  0  0
   17.7500   11.5750   24.2000 C   0  0  0  0  0  0  0  0  0  0  0  0
   16.9420   10.9040   23.1300 C   0  0  0  0  0  0  0  0  0  0  0  0
   17.5460   10.0970   22.6910 H   0  0  0  0  0  0  0  0  0  0  0  0
   16.8100   11.6250   22.3100 H   0  0  0  0  0  0  0  0  0  0  0  0
   15.5660   10.3510   23.5530 C   0  0  0  0  0  0  0  0  0  0  0  0
   14.8580    9.8400   22.2940 C   0  0  0  0  0  0  0  0  0  0  0  0
   14.7020   10.6460   21.5680 H   0  0  0  0  0  0  0  0  0  0  0  0
   13.8760    9.4150   22.5290 H   0  0  0  0  0  0  0  0  0  0  0  0
   15.4440    9.0570   21.7980 H   0  0  0  0  0  0  0  0  0  0  0  0
   14.6810   11.4230   24.1890 C   0  0  0  0  0  0  0  0  0  0  0  0
   14.5870   12.3000   23.5390 H   0  0  0  0  0  0  0  0  0  0  0  0
   15.0690   11.7560   25.1580 H   0  0  0  0  0  0  0  0  0  0  0  0
   13.6690   11.0420   24.3710 H   0  0  0  0  0  0  0  0  0  0  0  0
   15.7180    9.1840   24.5280 C   0  0  0  0  0  0  0  0  0  0  0  0
   16.3650    8.4010   24.1150 H   0  0  0  0  0  0  0  0  0  0  0  0
   14.7480    8.7240   24.7510 H   0  0  0  0  0  0  0  0  0  0  0  0
   16.1480    9.5040   25.4830 H   0  0  0  0  0  0  0  0  0  0  0  0
   18.7020   10.8910   24.9490 C   0  0  0  0  0  0  0  0  0  0  0  0
   18.8530    9.8300   24.7610 H   0  0  0  0  0  0  0  0  0  0  0  0
   19.4500   11.5600   25.9200 C   0  0  0  0  0  0  0  0  0  0  0  0
   20.5170   10.8790   26.7250 C   0  0  3  0  0  0  0  0  0  0  0  0
   20.0150   10.1490   27.3730 H   0  0  0  0  0  0  0  0  0  0  0  0
   21.4920   10.0590   25.9090 N   0  3  0  0  0  0  0  0  0  0  0  0
   20.9810    9.2980   25.4300 H   0  0  0  0  0  0  0  0  0  0  0  0
   22.1550    9.5800   26.5330 H   0  0  0  0  0  0  0  0  0  0  0  0
   22.2420   10.7860   24.8210 C   0  0  0  0  0  0  0  0  0  0  0  0
   23.0650   11.3200   25.3020 H   0  0  0  0  0  0  0  0  0  0  0  0
   21.5530   11.4940   24.3520 H   0  0  0  0  0  0  0  0  0  0  0  0
   22.7360    9.7630   23.7960 C   0  0  3  0  0  0  0  0  0  0  0  0
   23.4040    9.0430   24.2830 H   0  0  0  0  0  0  0  0  0  0  0  0
   21.5900    9.0370   23.3270 O   0  0  0  0  0  0  0  0  0  0  0  0
   21.1370    9.5520   22.6320 H   0  0  0  0  0  0  0  0  0  0  0  0
   23.4630   10.4550   22.6260 C   0  0  3  0  0  0  0  0  0  0  0  0
   22.7380   11.1470   22.1780 H   0  0  0  0  0  0  0  0  0  0  0  0
   24.6210   11.2300   23.0640 N   0  0  0  0  0  0  0  0  0  0  0  0
   25.4760   10.7430   23.3160 H   0  0  0  0  0  0  0  0  0  0  0  0
   24.6050   12.6060   23.0950 C   0  0  0  0  0  0  0  0  0  0  0  0
   23.5920   13.2670   22.8980 O   0  0  0  0  0  0  0  0  0  0  0  0
   25.9550   13.2270   23.3220 C   0  0  0  0  0  0  0  0  0  0  0  0
   26.5340   12.6420   24.0430 H   0  0  0  0  0  0  0  0  0  0  0  0
   25.8300   14.2390   23.7170 H   0  0  0  0  0  0  0  0  0  0  0  0
   26.4960   13.2690   22.3730 H   0  0  0  0  0  0  0  0  0  0  0  0
   23.8950    9.4640   21.5260 C   0  0  0  0  0  0  0  0  0  0  0  0
   23.0480    8.8520   21.1940 H   0  0  0  0  0  0  0  0  0  0  0  0
   24.6440    8.7680   21.9260 H   0  0  0  0  0  0  0  0  0  0  0  0
   24.4490   10.1880   20.3250 C   0  0  0  0  0  0  0  0  0  0  0  0
   25.7920   10.0520   19.9630 C   0  0  0  0  0  0  0  0  0  0  0  0
   26.4670    9.3930   20.4980 H   0  0  0  0  0  0  0  0  0  0  0  0
   26.2510   10.7870   18.8930 C   0  0  0  0  0  0  0  0  0  0  0  0
   27.5040   10.7610   18.3700 O   0  0  0  0  0  0  0  0  0  0  0  0
   27.4170   11.8250   17.4110 C   0  0  0  0  0  0  0  0  0  0  0  0
   27.8600   11.4830   16.4700 H   0  0  0  0  0  0  0  0  0  0  0  0
   27.9930   12.6860   17.7740 H   0  0  0  0  0  0  0  0  0  0  0  0
   26.0660   12.2310   17.1590 O   0  0  0  0  0  0  0  0  0  0  0  0
   25.4280   11.6290   18.1920 C   0  0  0  0  0  0  0  0  0  0  0  0
   24.1020   11.7730   18.5080 C   0  0  0  0  0  0  0  0  0  0  0  0
   23.4590   12.4310   17.9330 H   0  0  0  0  0  0  0  0  0  0  0  0
   23.6120   11.0400   19.5800 C   0  0  0  0  0  0  0  0  0  0  0  0
   22.5600   11.1430   19.8380 H   0  0  0  0  0  0  0  0  0  0  0  0
  1  2  1  0  0  0  0
  1  3  1  0  0  0  0
  1  4  1  0  0  0  0
  1 10  1  0  0  0  0
  4  5  1  0  0  0  0
  4  6  1  0  0  0  0
  4  7  1  0  0  0  0
  7  8  1  0  0  0  0
  7  9  1  0  0  0  0
  7 10  1  0  0  0  0
 10 11  1  0  0  0  0
 10 14  1  0  0  0  0
 11 12  1  0  0  0  0
 11 13  1  0  0  0  0
 11 39  1  0  0  0  0
 14 15  1  0  0  0  0
 15 16  1  0  0  0  0
 15 38  2  0  0  0  0
 16 17  2  0  0  0  0
 17 18  1  0  0  0  0
 17 19  1  0  0  0  0
 19 20  1  0  0  0  0
 19 36  2  0  0  0  0
 20 21  1  0  0  0  0
 20 22  1  0  0  0  0
 20 23  1  0  0  0  0
 23 24  1  0  0  0  0
 23 28  1  0  0  0  0
 23 32  1  0  0  0  0
 24 25  1  0  0  0  0
 24 26  1  0  0  0  0
 24 27  1  0  0  0  0
 28 29  1  0  0  0  0
 28 30  1  0  0  0  0
 28 31  1  0  0  0  0
 32 33  1  0  0  0  0
 32 34  1  0  0  0  0
 32 35  1  0  0  0  0
 36 37  1  0  0  0  0
 36 38  1  0  0  0  0
 38 39  1  0  0  0  0
 39 40  1  0  0  0  0
 39 41  1  0  0  0  0
 41 42  1  0  0  0  0
 41 43  1  0  0  0  0
 41 44  1  0  0  0  0
 44 45  1  0  0  0  0
 44 46  1  0  0  0  0
 44 47  1  0  0  0  0
 47 48  1  0  0  0  0
 47 49  1  0  0  0  0
 47 51  1  0  0  0  0
 49 50  1  0  0  0  0
 51 52  1  0  0  0  0
 51 53  1  0  0  0  0
 51 61  1  0  0  0  0
 53 54  1  0  0  0  0
 53 55  1  0  0  0  0
 55 56  2  0  0  0  0
 55 57  1  0  0  0  0
 57 58  1  0  0  0  0
 57 59  1  0  0  0  0
 57 60  1  0  0  0  0
 61 62  1  0  0  0  0
 61 63  1  0  0  0  0
 61 64  1  0  0  0  0
 64 65  1  0  0  0  0
 64 76  2  0  0  0  0
 65 66  1  0  0  0  0
 65 67  2  0  0  0  0
 67 68  1  0  0  0  0
 67 73  1  0  0  0  0
 68 69  1  0  0  0  0
 69 70  1  0  0  0  0
 69 71  1  0  0  0  0
 69 72  1  0  0  0  0
 72 73  1  0  0  0  0
 73 74  2  0  0  0  0
 74 75  1  0  0  0  0
 74 76  1  0  0  0  0
 76 77  1  0  0  0  0
M  CHG  1  41   1
M  END
>  <PARENT_CMPD_ID>
22468639_17

>  <STANDARD_TYPE>
IC50

>  <RELATION>
=

>  <STANDARD_VALUE>
8

>  <STANDARD_UNITS>
nM

>  <COMPOUND_KEY>
17

>  <PUBMED_ID>
22468639

>  <JOURNAL>
J. Med. Chem.

>  <YEAR>
2012

>  <VOLUME>
55

>  <FIRST_PAGE>
9009

>  <Company>
Amgen

>  <idx>
373

>  <Model>
Valid

>  <target>
8.0969105

>  <des_pred_mlr>
7.1380801

>  <RF_Canvas>
7.6961737

>  <DNN_Canvas>
7.8508253

>  <pred_CoMFA>
7.2774

>  <pred_COMSIA>
7.3190999

>  <pred_abm5>
7.5741811

>  <pred_ff8>
7.3580379

>  <pred_gau6>
7.5575166

>  <CID>
BACE_373

>  <active>
1

>  <des_class_bayes>
0

>  <maacs_class_bayes>
1

>  <radial_class_bayes>
1

>  <dend_class_bayes>
1

>  <molprint_class_bayes>
1

>  <RF_canvas>
1

>  <DNN_canvas>
1

$$$$
CHEMBL1824141
  MOE2015           3D

 52 55  0  0  1  0  0  0  0  0999 V2000
   16.6230   10.9890   21.4690 C   0  0  0  0  0  0  0  0  0  0  0  0
   16.5480    9.9090   21.3440 H   0  0  0  0  0  0  0  0  0  0  0  0
   16.9540   11.2150   22.4830 H   0  0  0  0  0  0  0  0  0  0  0  0
   15.2740   11.6190   21.2290 C   0  0  0  0  0  0  0  0  0  0  0  0
   14.5540   11.2200   21.9430 H   0  0  0  0  0  0  0  0  0  0  0  0
   14.9430   11.3930   20.2150 H   0  0  0  0  0  0  0  0  0  0  0  0
   15.3790   13.1130   21.4020 C   0  0  0  0  0  0  0  0  0  0  0  0
   14.4040   13.5680   21.2280 H   0  0  0  0  0  0  0  0  0  0  0  0
   16.0990   13.5120   20.6870 H   0  0  0  0  0  0  0  0  0  0  0  0
   15.7100   13.3390   22.4150 H   0  0  0  0  0  0  0  0  0  0  0  0
   18.9020   10.9230   20.7310 N   0  0  0  0  0  0  0  0  0  0  0  0
   22.2720   12.9270   22.7600 O   0  0  0  0  0  0  0  0  0  0  0  0
   17.6230   11.5440   20.4750 C   0  0  0  0  0  0  0  0  0  0  0  0
   17.7050   12.6240   20.5980 H   0  0  0  0  0  0  0  0  0  0  0  0
   17.2990   11.3170   19.4590 H   0  0  0  0  0  0  0  0  0  0  0  0
   19.1230    9.6740   20.3070 N   0  0  0  0  0  0  0  0  0  0  0  0
   19.9550   11.4720   21.3840 C   0  0  0  0  0  0  0  0  0  0  0  0
   20.0090   12.4590   21.8180 H   0  0  0  0  0  0  0  0  0  0  0  0
   22.7900   11.1750   24.1580 N   0  0  0  0  0  0  0  0  0  0  0  0
   20.9380   10.5140   21.3800 C   0  0  0  0  0  0  0  0  0  0  0  0
   22.4690    9.3930   22.8380 N   0  0  0  0  0  0  0  0  0  0  0  0
   20.3610    9.4240   20.7010 C   0  0  0  0  0  0  0  0  0  0  0  0
   20.8710    8.4890   20.5220 H   0  0  0  0  0  0  0  0  0  0  0  0
   22.8120    9.0120   25.0300 N   0  0  0  0  0  0  0  0  0  0  0  0
   22.4800    8.0650   24.9150 H   0  0  0  0  0  0  0  0  0  0  0  0
   23.1100    9.3350   25.9390 H   0  0  0  0  0  0  0  0  0  0  0  0
   22.2970   10.5960   21.9830 C   0  0  3  0  0  0  0  0  0  0  0  0
   28.9400    9.6760   21.8070 N   0  0  0  0  0  0  0  0  0  0  0  0
   22.4290   11.7400   22.9820 C   0  0  0  0  0  0  0  0  0  0  0  0
   29.3350   11.8070   20.8130 N   0  0  0  0  0  0  0  0  0  0  0  0
   22.8560    9.8370   23.9800 C   0  0  0  0  0  0  0  0  0  0  0  0
   23.0170   11.9520   25.3510 C   0  0  0  0  0  0  0  0  0  0  0  0
   22.8760   13.0100   25.1280 H   0  0  0  0  0  0  0  0  0  0  0  0
   24.0350   11.7870   25.7040 H   0  0  0  0  0  0  0  0  0  0  0  0
   22.3110   11.6460   26.1230 H   0  0  0  0  0  0  0  0  0  0  0  0
   23.3350   10.8070   20.8720 C   0  0  0  0  0  0  0  0  0  0  0  0
   22.9920   11.0920   19.5340 C   0  0  0  0  0  0  0  0  0  0  0  0
   21.9520   11.1680   19.2540 H   0  0  0  0  0  0  0  0  0  0  0  0
   23.9790   11.2760   18.5700 C   0  0  0  0  0  0  0  0  0  0  0  0
   23.7000   11.4870   17.5480 H   0  0  0  0  0  0  0  0  0  0  0  0
   25.3240   11.1890   18.9180 C   0  0  0  0  0  0  0  0  0  0  0  0
   26.0810   11.3390   18.1620 H   0  0  0  0  0  0  0  0  0  0  0  0
   25.7110   10.9080   20.2410 C   0  0  0  0  0  0  0  0  0  0  0  0
   24.7010   10.7290   21.1920 C   0  0  0  0  0  0  0  0  0  0  0  0
   24.9830   10.5220   22.2140 H   0  0  0  0  0  0  0  0  0  0  0  0
   27.1120   10.8280   20.6810 C   0  0  0  0  0  0  0  0  0  0  0  0
   27.6460    9.7590   21.3920 C   0  0  0  0  0  0  0  0  0  0  0  0
   26.9880    8.9370   21.6320 H   0  0  0  0  0  0  0  0  0  0  0  0
   29.7290   10.7180   21.4930 C   0  0  0  0  0  0  0  0  0  0  0  0
   30.7600   10.6760   21.8120 H   0  0  0  0  0  0  0  0  0  0  0  0
   28.0330   11.8330   20.4260 C   0  0  0  0  0  0  0  0  0  0  0  0
   27.6900   12.6990   19.8800 H   0  0  0  0  0  0  0  0  0  0  0  0
  1  2  1  0  0  0  0
  1  3  1  0  0  0  0
  1  4  1  0  0  0  0
  1 13  1  0  0  0  0
  4  5  1  0  0  0  0
  4  6  1  0  0  0  0
  4  7  1  0  0  0  0
  7  8  1  0  0  0  0
  7  9  1  0  0  0  0
  7 10  1  0  0  0  0
 11 13  1  0  0  0  0
 11 16  1  0  0  0  0
 11 17  1  0  0  0  0
 12 29  2  0  0  0  0
 13 14  1  0  0  0  0
 13 15  1  0  0  0  0
 16 22  2  0  0  0  0
 17 18  1  0  0  0  0
 17 20  2  0  0  0  0
 19 29  1  0  0  0  0
 19 31  1  0  0  0  0
 19 32  1  0  0  0  0
 20 22  1  0  0  0  0
 20 27  1  0  0  0  0
 21 27  1  0  0  0  0
 21 31  2  0  0  0  0
 22 23  1  0  0  0  0
 24 25  1  0  0  0  0
 24 26  1  0  0  0  0
 24 31  1  0  0  0  0
 27 29  1  0  0  0  0
 27 36  1  0  0  0  0
 28 47  2  0  0  0  0
 28 49  1  0  0  0  0
 30 49  2  0  0  0  0
 30 51  1  0  0  0  0
 32 33  1  0  0  0  0
 32 34  1  0  0  0  0
 32 35  1  0  0  0  0
 36 37  1  0  0  0  0
 36 44  2  0  0  0  0
 37 38  1  0  0  0  0
 37 39  2  0  0  0  0
 39 40  1  0  0  0  0
 39 41  1  0  0  0  0
 41 42  1  0  0  0  0
 41 43  2  0  0  0  0
 43 44  1  0  0  0  0
 43 46  1  0  0  0  0
 44 45  1  0  0  0  0
 46 47  1  0  0  0  0
 46 51  2  0  0  0  0
 47 48  1  0  0  0  0
 49 50  1  0  0  0  0
 51 52  1  0  0  0  0
M  END
>  <PARENT_CMPD_ID>
CHEMBL1824141

>  <STANDARD_TYPE>
IC50

>  <RELATION>
=

>  <STANDARD_VALUE>
8

>  <STANDARD_UNITS>
nM

>  <COMPOUND_KEY>
35

>  <PUBMED_ID>
21835615

>  <JOURNAL>
Bioorg.Med.Chem.Lett.

>  <YEAR>
2011

>  <VOLUME>
21

>  <FIRST_PAGE>
5164

>  <Company>
Pfizer

>  <idx>
374

>  <Model>
Valid

>  <target>
8.0969095

>  <des_pred_mlr>
6.1557899

>  <RF_Canvas>
6.9893126

>  <DNN_Canvas>
7.1276441

>  <pred_CoMFA>
8.0944996

>  <pred_COMSIA>
7.3413

>  <pred_abm5>
7.5742202

>  <pred_ff8>
6.2514138

>  <pred_gau6>
7.4425883

>  <CID>
BACE_374

>  <active>
1

>  <des_class_bayes>
0

>  <maacs_class_bayes>
1

>  <radial_class_bayes>
0

>  <dend_class_bayes>
1

>  <molprint_class_bayes>
1

>  <RF_canvas>
1

>  <DNN_canvas>
1

$$$$
23570791_8
  MOE2015           3D

 58 61  0  0  1  0  0  0  0  0999 V2000
   21.5010   15.1780   17.3910 Cl  0  0  0  0  0  0  0  0  0  0  0  0
   22.5630   14.5060   18.5550 C   0  0  0  0  0  0  0  0  0  0  0  0
   23.6360   15.2520   19.0160 C   0  0  0  0  0  0  0  0  0  0  0  0
   24.5010   14.7070   19.9540 C   0  0  0  0  0  0  0  0  0  0  0  0
   24.3030   13.4070   20.4070 C   0  0  0  0  0  0  0  0  0  0  0  0
   25.2480   12.7470   21.3530 C   0  0  0  0  0  0  0  0  0  0  0  0
   25.3020   11.4580   21.4660 N   0  0  0  0  0  0  0  0  0  0  0  0
   24.4140   10.6100   20.6660 C   0  0  0  0  0  0  0  0  0  0  0  0
   24.2200    9.3090   21.4500 C   0  0  0  0  0  0  0  0  0  0  0  0
   25.0950   10.2810   19.3350 C   0  0  0  0  0  0  0  0  0  0  0  0
   23.0470   11.2740   20.4630 C   0  0  0  0  0  0  0  0  0  0  0  0
   23.2250   12.6620   19.9410 C   0  0  0  0  0  0  0  0  0  0  0  0
   22.3420   13.2210   19.0240 C   0  0  0  0  0  0  0  0  0  0  0  0
   26.0430   13.5480   22.1280 N   0  0  0  0  0  0  0  0  0  0  0  0
   27.2220   13.1200   22.8720 C   0  0  3  0  0  0  0  0  0  0  0  0
   28.5010   13.4380   22.0890 C   0  0  0  0  0  0  0  0  0  0  0  0
   27.2740   13.9320   24.1830 C   0  0  0  0  0  0  0  0  0  0  0  0
   28.1680   13.6070   25.0100 O   0  0  0  0  0  0  0  0  0  0  0  0
   26.4110   14.8470   24.3190 O   0  5  0  0  0  0  0  0  0  0  0  0
   28.7180   12.5480   20.8850 C   0  0  0  0  0  0  0  0  0  0  0  0
   28.4360   12.8670   19.5150 C   0  0  0  0  0  0  0  0  0  0  0  0
   28.6380   11.8090   18.6640 C   0  0  0  0  0  0  0  0  0  0  0  0
   29.3070   10.4820   19.4510 S   0  0  0  0  0  0  0  0  0  0  0  0
   29.2630   11.2700   20.9630 C   0  0  0  0  0  0  0  0  0  0  0  0
   29.8520   10.5700   22.1500 C   0  0  0  0  0  0  0  0  0  0  0  0
   29.2680    9.1920   22.4200 C   0  0  0  0  0  0  0  0  0  0  0  0
   29.9720    8.5360   23.5900 C   0  0  0  0  0  0  0  0  0  0  0  0
   28.0080   14.1580   19.0130 C   0  0  0  0  0  0  0  0  0  0  0  0
   28.5210   15.4160   19.3780 C   0  0  0  0  0  0  0  0  0  0  0  0
   27.9770   16.4130   18.6720 N   0  0  0  0  0  0  0  0  0  0  0  0
   27.1530   15.7790   17.8220 N   0  0  0  0  0  0  0  0  0  0  0  0
   27.1470   14.4240   17.9740 C   0  0  0  0  0  0  0  0  0  0  0  0
   23.8010   16.2650   18.6590 H   0  0  0  0  0  0  0  0  0  0  0  0
   25.3420   15.3010   20.3020 H   0  0  0  0  0  0  0  0  0  0  0  0
   25.1790    8.8080   21.6300 H   0  0  0  0  0  0  0  0  0  0  0  0
   23.5710    8.6100   20.9110 H   0  0  0  0  0  0  0  0  0  0  0  0
   23.7710    9.5010   22.4310 H   0  0  0  0  0  0  0  0  0  0  0  0
   26.0420    9.7560   19.5000 H   0  0  0  0  0  0  0  0  0  0  0  0
   25.3300   11.1800   18.7550 H   0  0  0  0  0  0  0  0  0  0  0  0
   24.4620    9.6380   18.7130 H   0  0  0  0  0  0  0  0  0  0  0  0
   22.5000   11.3400   21.4130 H   0  0  0  0  0  0  0  0  0  0  0  0
   22.4350   10.6760   19.7760 H   0  0  0  0  0  0  0  0  0  0  0  0
   21.4940   12.6450   18.6640 H   0  0  0  0  0  0  0  0  0  0  0  0
   25.8080   14.5240   22.3120 H   0  0  0  0  0  0  0  0  0  0  0  0
   27.1620   12.0590   23.1400 H   0  0  0  0  0  0  0  0  0  0  0  0
   29.3820   13.3530   22.7380 H   0  0  0  0  0  0  0  0  0  0  0  0
   28.4830   14.4920   21.8010 H   0  0  0  0  0  0  0  0  0  0  0  0
   28.4770   11.7780   17.5950 H   0  0  0  0  0  0  0  0  0  0  0  0
   29.7260   11.1810   23.0510 H   0  0  0  0  0  0  0  0  0  0  0  0
   30.9360   10.4880   21.9950 H   0  0  0  0  0  0  0  0  0  0  0  0
   29.3690    8.5340   21.5500 H   0  0  0  0  0  0  0  0  0  0  0  0
   28.1950    9.2740   22.6340 H   0  0  0  0  0  0  0  0  0  0  0  0
   31.0400    8.4070   23.3870 H   0  0  0  0  0  0  0  0  0  0  0  0
   29.5430    7.5480   23.7840 H   0  0  0  0  0  0  0  0  0  0  0  0
   29.8650    9.1340   24.5010 H   0  0  0  0  0  0  0  0  0  0  0  0
   29.2790   15.6610   20.1100 H   0  0  0  0  0  0  0  0  0  0  0  0
   26.6250   16.3370   17.1610 H   0  0  0  0  0  0  0  0  0  0  0  0
   26.5420   13.7860   17.3450 H   0  0  0  0  0  0  0  0  0  0  0  0
  1  2  1  0  0  0  0
  2  3  1  0  0  0  0
  2 13  2  0  0  0  0
  3  4  2  0  0  0  0
  3 33  1  0  0  0  0
  4  5  1  0  0  0  0
  4 34  1  0  0  0  0
  5  6  1  0  0  0  0
  5 12  2  0  0  0  0
  6  7  2  0  0  0  0
  6 14  1  0  0  0  0
  7  8  1  0  0  0  0
  8  9  1  0  0  0  0
  8 10  1  0  0  0  0
  8 11  1  0  0  0  0
  9 35  1  0  0  0  0
  9 36  1  0  0  0  0
  9 37  1  0  0  0  0
 10 38  1  0  0  0  0
 10 39  1  0  0  0  0
 10 40  1  0  0  0  0
 11 12  1  0  0  0  0
 11 41  1  0  0  0  0
 11 42  1  0  0  0  0
 12 13  1  0  0  0  0
 13 43  1  0  0  0  0
 14 15  1  0  0  0  0
 14 44  1  0  0  0  0
 15 16  1  0  0  0  0
 15 17  1  0  0  0  0
 15 45  1  0  0  0  0
 16 20  1  0  0  0  0
 16 46  1  0  0  0  0
 16 47  1  0  0  0  0
 17 18  2  0  0  0  0
 17 19  1  0  0  0  0
 20 21  1  0  0  0  0
 20 24  2  0  0  0  0
 21 22  2  0  0  0  0
 21 28  1  0  0  0  0
 22 23  1  0  0  0  0
 22 48  1  0  0  0  0
 23 24  1  0  0  0  0
 24 25  1  0  0  0  0
 25 26  1  0  0  0  0
 25 49  1  0  0  0  0
 25 50  1  0  0  0  0
 26 27  1  0  0  0  0
 26 51  1  0  0  0  0
 26 52  1  0  0  0  0
 27 53  1  0  0  0  0
 27 54  1  0  0  0  0
 27 55  1  0  0  0  0
 28 29  1  0  0  0  0
 28 32  2  0  0  0  0
 29 30  2  0  0  0  0
 29 56  1  0  0  0  0
 30 31  1  0  0  0  0
 31 32  1  0  0  0  0
 31 57  1  0  0  0  0
 32 58  1  0  0  0  0
M  CHG  1  19  -1
M  END
>  <PARENT_CMPD_ID>
23570791_8

>  <STANDARD_TYPE>
IC50

>  <RELATION>
=

>  <STANDARD_VALUE>
0.0080000004

>  <STANDARD_UNITS>
uM

>  <COMPOUND_KEY>
8

>  <PUBMED_ID>
23570791

>  <JOURNAL>
Bioorg.Med.Chem.Lett.

>  <YEAR>
2013

>  <VOLUME>
23

>  <FIRST_PAGE>
3075

>  <Company>
Elan

>  <idx>
375

>  <Model>
Valid

>  <target>
8.0969095

>  <des_pred_mlr>
6.6531501

>  <RF_Canvas>
7.607913

>  <DNN_Canvas>
7.3196926

>  <pred_CoMFA>
7.1345

>  <pred_COMSIA>
6.9888

>  <pred_abm5>
6.7916436

>  <pred_ff8>
6.5044832

>  <pred_gau6>
6.7928658

>  <CID>
BACE_375

>  <active>
1

>  <des_class_bayes>
0

>  <maacs_class_bayes>
1

>  <radial_class_bayes>
0

>  <dend_class_bayes>
0

>  <molprint_class_bayes>
0

>  <RF_canvas>
1

>  <DNN_canvas>
0

$$$$
23981898_11c
  MOE2015           3D

 68 70  0  0  1  0  0  0  0  0999 V2000
   28.6370    9.0830   21.0550 F   0  0  0  0  0  0  0  0  0  0  0  0
   29.2940   10.2380   20.8520 C   0  0  0  0  0  0  0  0  0  0  0  0
   30.1090   10.4250   21.9050 F   0  0  0  0  0  0  0  0  0  0  0  0
   30.0690   10.0900   19.7650 F   0  0  0  0  0  0  0  0  0  0  0  0
   28.3340   11.3990   20.7050 C   0  0  0  0  0  0  0  0  0  0  0  0
   27.5350   11.2190   19.5330 O   0  0  0  0  0  0  0  0  0  0  0  0
   26.1780   11.2490   19.7210 C   0  0  0  0  0  0  0  0  0  0  0  0
   25.4410   12.0480   18.8410 C   0  0  0  0  0  0  0  0  0  0  0  0
   24.0550   12.0630   18.9810 C   0  0  0  0  0  0  0  0  0  0  0  0
   23.4060   11.3190   19.9580 C   0  0  0  0  0  0  0  0  0  0  0  0
   24.1390   10.5210   20.8350 C   0  0  0  0  0  0  0  0  0  0  0  0
   25.5300   10.4710   20.6880 C   0  0  0  0  0  0  0  0  0  0  0  0
   23.4580    9.7890   21.9680 C   0  0  0  0  0  0  0  0  0  0  0  0
   22.8760   10.7470   23.0260 C   0  0  3  0  0  0  0  0  0  0  0  0
   22.1810   10.0080   24.1930 C   0  0  3  0  0  0  0  0  0  0  0  0
   21.5210   10.9790   25.2010 C   0  0  3  0  0  0  0  0  0  0  0  0
   22.5020   11.9650   25.8150 C   0  0  0  0  0  0  0  0  0  0  0  0
   23.2460   13.0200   24.5530 S   0  0  0  0  0  0  0  0  0  0  0  0
   23.9620   11.6700   23.5830 C   0  0  0  0  0  0  0  0  0  0  0  0
   22.1420   13.6140   23.7340 O   0  0  0  0  0  0  0  0  0  0  0  0
   20.8980   10.1280   26.2960 N   0  3  0  0  0  0  0  0  0  0  0  0
   19.8830   10.7790   27.1820 C   0  0  0  0  0  0  0  0  0  0  0  0
   18.7430   11.4330   26.4610 C   0  0  0  0  0  0  0  0  0  0  0  0
   17.8140   10.6630   25.7530 C   0  0  0  0  0  0  0  0  0  0  0  0
   16.7520   11.2410   25.0420 C   0  0  0  0  0  0  0  0  0  0  0  0
   16.6600   12.6340   25.0600 C   0  0  0  0  0  0  0  0  0  0  0  0
   17.5740   13.4120   25.7620 C   0  0  0  0  0  0  0  0  0  0  0  0
   18.6090   12.8170   26.4610 C   0  0  0  0  0  0  0  0  0  0  0  0
   15.7680   10.3580   24.2700 C   0  0  0  0  0  0  0  0  0  0  0  0
   15.2000    9.2620   25.1820 C   0  0  0  0  0  0  0  0  0  0  0  0
   14.5650   11.1210   23.6950 C   0  0  0  0  0  0  0  0  0  0  0  0
   16.5020    9.7040   23.0930 C   0  0  0  0  0  0  0  0  0  0  0  0
   21.1580    9.1210   23.7320 O   0  0  0  0  0  0  0  0  0  0  0  0
   23.3210   12.8240   18.1620 F   0  0  0  0  0  0  0  0  0  0  0  0
   26.0750   12.8030   17.8660 N   0  0  0  0  0  0  0  0  0  0  0  0
   27.7450   11.5300   21.6200 H   0  0  0  0  0  0  0  0  0  0  0  0
   28.9070   12.3220   20.5630 H   0  0  0  0  0  0  0  0  0  0  0  0
   22.3240   11.3860   20.0300 H   0  0  0  0  0  0  0  0  0  0  0  0
   26.1150    9.8230   21.3360 H   0  0  0  0  0  0  0  0  0  0  0  0
   24.1630    9.0960   22.4440 H   0  0  0  0  0  0  0  0  0  0  0  0
   22.6620    9.1640   21.5420 H   0  0  0  0  0  0  0  0  0  0  0  0
   22.1080   11.3460   22.5180 H   0  0  0  0  0  0  0  0  0  0  0  0
   22.9180    9.3850   24.7150 H   0  0  0  0  0  0  0  0  0  0  0  0
   20.6940   11.4910   24.6960 H   0  0  0  0  0  0  0  0  0  0  0  0
   23.3070   11.4520   26.3520 H   0  0  0  0  0  0  0  0  0  0  0  0
   22.0020   12.6320   26.5240 H   0  0  0  0  0  0  0  0  0  0  0  0
   24.5250   12.1710   22.7920 H   0  0  0  0  0  0  0  0  0  0  0  0
   24.6790   11.1270   24.2070 H   0  0  0  0  0  0  0  0  0  0  0  0
   21.6190    9.6730   26.8710 H   0  0  0  0  0  0  0  0  0  0  0  0
   20.4410    9.3510   25.7870 H   0  0  0  0  0  0  0  0  0  0  0  0
   20.4250   11.4900   27.8160 H   0  0  0  0  0  0  0  0  0  0  0  0
   19.5030    9.9900   27.8410 H   0  0  0  0  0  0  0  0  0  0  0  0
   17.9240    9.5800   25.7540 H   0  0  0  0  0  0  0  0  0  0  0  0
   15.8710   13.1570   24.5250 H   0  0  0  0  0  0  0  0  0  0  0  0
   17.4740   14.4950   25.7560 H   0  0  0  0  0  0  0  0  0  0  0  0
   19.3110   13.4520   26.9970 H   0  0  0  0  0  0  0  0  0  0  0  0
   14.7210    9.6920   26.0690 H   0  0  0  0  0  0  0  0  0  0  0  0
   15.9680    8.5620   25.5310 H   0  0  0  0  0  0  0  0  0  0  0  0
   14.4470    8.6590   24.6590 H   0  0  0  0  0  0  0  0  0  0  0  0
   13.9960   11.6300   24.4820 H   0  0  0  0  0  0  0  0  0  0  0  0
   13.8720   10.4440   23.1810 H   0  0  0  0  0  0  0  0  0  0  0  0
   14.8720   11.8740   22.9590 H   0  0  0  0  0  0  0  0  0  0  0  0
   17.3270    9.0630   23.4250 H   0  0  0  0  0  0  0  0  0  0  0  0
   16.9270   10.4580   22.4190 H   0  0  0  0  0  0  0  0  0  0  0  0
   15.8260    9.0750   22.5010 H   0  0  0  0  0  0  0  0  0  0  0  0
   20.6220    9.5680   23.0490 H   0  0  0  0  0  0  0  0  0  0  0  0
   25.5370   13.3910   17.2430 H   0  0  0  0  0  0  0  0  0  0  0  0
   27.0830   12.7510   17.7810 H   0  0  0  0  0  0  0  0  0  0  0  0
  1  2  1  0  0  0  0
  2  3  1  0  0  0  0
  2  4  1  0  0  0  0
  2  5  1  0  0  0  0
  5  6  1  0  0  0  0
  5 36  1  0  0  0  0
  5 37  1  0  0  0  0
  6  7  1  0  0  0  0
  7  8  1  0  0  0  0
  7 12  2  0  0  0  0
  8  9  2  0  0  0  0
  8 35  1  0  0  0  0
  9 10  1  0  0  0  0
  9 34  1  0  0  0  0
 10 11  2  0  0  0  0
 10 38  1  0  0  0  0
 11 12  1  0  0  0  0
 11 13  1  0  0  0  0
 12 39  1  0  0  0  0
 13 14  1  0  0  0  0
 13 40  1  0  0  0  0
 13 41  1  0  0  0  0
 14 15  1  0  0  0  0
 14 19  1  0  0  0  0
 14 42  1  0  0  0  0
 15 16  1  0  0  0  0
 15 33  1  0  0  0  0
 15 43  1  0  0  0  0
 16 17  1  0  0  0  0
 16 21  1  0  0  0  0
 16 44  1  0  0  0  0
 17 18  1  0  0  0  0
 17 45  1  0  0  0  0
 17 46  1  0  0  0  0
 18 19  1  0  0  0  0
 18 20  2  0  0  0  0
 19 47  1  0  0  0  0
 19 48  1  0  0  0  0
 21 22  1  0  0  0  0
 21 49  1  0  0  0  0
 21 50  1  0  0  0  0
 22 23  1  0  0  0  0
 22 51  1  0  0  0  0
 22 52  1  0  0  0  0
 23 24  1  0  0  0  0
 23 28  2  0  0  0  0
 24 25  2  0  0  0  0
 24 53  1  0  0  0  0
 25 26  1  0  0  0  0
 25 29  1  0  0  0  0
 26 27  2  0  0  0  0
 26 54  1  0  0  0  0
 27 28  1  0  0  0  0
 27 55  1  0  0  0  0
 28 56  1  0  0  0  0
 29 30  1  0  0  0  0
 29 31  1  0  0  0  0
 29 32  1  0  0  0  0
 30 57  1  0  0  0  0
 30 58  1  0  0  0  0
 30 59  1  0  0  0  0
 31 60  1  0  0  0  0
 31 61  1  0  0  0  0
 31 62  1  0  0  0  0
 32 63  1  0  0  0  0
 32 64  1  0  0  0  0
 32 65  1  0  0  0  0
 33 66  1  0  0  0  0
 35 67  1  0  0  0  0
 35 68  1  0  0  0  0
M  CHG  1  21   1
M  END
>  <PARENT_CMPD_ID>
23981898_11c

>  <STANDARD_TYPE>
IC50

>  <RELATION>
=

>  <STANDARD_VALUE>
0.0080000004

>  <STANDARD_UNITS>
uM

>  <COMPOUND_KEY>
11c

>  <PUBMED_ID>
23981898

>  <JOURNAL>
Bioorg.Med.Chem.Lett.

>  <YEAR>
2013

>  <VOLUME>
23

>  <FIRST_PAGE>
5300

>  <Company>
Novartis

>  <idx>
376

>  <Model>
Valid

>  <target>
8.0969095

>  <des_pred_mlr>
7.09023

>  <RF_Canvas>
7.5048914

>  <DNN_Canvas>
7.8404865

>  <pred_CoMFA>
8.1204996

>  <pred_COMSIA>
7.1229

>  <pred_abm5>
7.7944069

>  <pred_ff8>
7.7426305

>  <pred_gau6>
7.5505424

>  <CID>
BACE_376

>  <active>
1

>  <des_class_bayes>
1

>  <maacs_class_bayes>
1

>  <radial_class_bayes>
0

>  <dend_class_bayes>
1

>  <molprint_class_bayes>
1

>  <RF_canvas>
1

>  <DNN_canvas>
1

$$$$
22924815_40
  MOE2015           3D

 57 61  0  0  1  0  0  0  0  0999 V2000
   16.2420   11.1920   22.2060 C   0  0  0  0  0  0  0  0  0  0  0  0
   17.0410   11.6440   21.0030 C   0  0  0  0  0  0  0  0  0  0  0  0
   18.1610   10.7550   20.7350 N   0  0  0  0  0  0  0  0  0  0  0  0
   19.3890   11.0530   21.2770 C   0  0  0  0  0  0  0  0  0  0  0  0
   20.4770   10.2960   21.0650 C   0  0  0  0  0  0  0  0  0  0  0  0
   20.3040    9.0930   20.2720 C   0  0  0  0  0  0  0  0  0  0  0  0
   19.1320    8.7580   19.7190 C   0  0  0  0  0  0  0  0  0  0  0  0
   17.9450    9.6320   19.9450 C   0  0  0  0  0  0  0  0  0  0  0  0
   16.8550    9.3390   19.4580 O   0  0  0  0  0  0  0  0  0  0  0  0
   18.9290    7.5400   18.8900 C   0  0  0  0  0  0  0  0  0  0  0  0
   21.8940   10.5970   21.6040 C   0  0  3  0  0  0  0  0  0  0  0  0
   21.9370   11.7620   22.5680 C   0  0  0  0  0  0  0  0  0  0  0  0
   21.7840   13.1200   22.3640 C   0  0  0  0  0  0  0  0  0  0  0  0
   21.8590   13.9680   23.4640 C   0  0  0  0  0  0  0  0  0  0  0  0
   22.0980   13.4600   24.7430 C   0  0  0  0  0  0  0  0  0  0  0  0
   22.2760   12.1010   24.9230 C   0  0  0  0  0  0  0  0  0  0  0  0
   22.1940   11.2800   23.8300 C   0  0  0  0  0  0  0  0  0  0  0  0
   22.3820    9.8480   23.6870 C   0  0  0  0  0  0  0  0  0  0  0  0
   22.2580    9.4090   22.4690 N   0  0  0  0  0  0  0  0  0  0  0  0
   22.6880    9.0480   24.7370 N   0  0  0  0  0  0  0  0  0  0  0  0
   22.5260   11.6140   26.1380 F   0  0  0  0  0  0  0  0  0  0  0  0
   22.9470   10.8150   20.5010 C   0  0  0  0  0  0  0  0  0  0  0  0
   22.5960   11.2090   19.2080 C   0  0  0  0  0  0  0  0  0  0  0  0
   23.5680   11.4250   18.2470 C   0  0  0  0  0  0  0  0  0  0  0  0
   24.9110   11.2950   18.5690 C   0  0  0  0  0  0  0  0  0  0  0  0
   25.3230   10.9610   19.8620 C   0  0  0  0  0  0  0  0  0  0  0  0
   24.3180   10.7080   20.8030 C   0  0  0  0  0  0  0  0  0  0  0  0
   26.7510   10.9290   20.2210 C   0  0  0  0  0  0  0  0  0  0  0  0
   27.2910   10.0320   21.1500 C   0  0  0  0  0  0  0  0  0  0  0  0
   28.6470   10.0720   21.4800 C   0  0  0  0  0  0  0  0  0  0  0  0
   29.4410   11.0090   20.8450 C   0  0  0  0  0  0  0  0  0  0  0  0
   28.9780   11.8870   19.9330 N   0  0  0  0  0  0  0  0  0  0  0  0
   27.6570   11.8320   19.6630 C   0  0  0  0  0  0  0  0  0  0  0  0
   29.2110    9.1760   22.4380 C   0  0  0  0  0  0  0  0  0  0  0  0
   29.6730    8.4460   23.2110 N   0  0  0  0  0  0  0  0  0  0  0  0
   15.4020   11.8700   22.3830 H   0  0  0  0  0  0  0  0  0  0  0  0
   16.8620   11.1760   23.1080 H   0  0  0  0  0  0  0  0  0  0  0  0
   15.8390   10.1840   22.0610 H   0  0  0  0  0  0  0  0  0  0  0  0
   17.4060   12.6670   21.1500 H   0  0  0  0  0  0  0  0  0  0  0  0
   16.3840   11.6680   20.1250 H   0  0  0  0  0  0  0  0  0  0  0  0
   19.4160   11.9520   21.8810 H   0  0  0  0  0  0  0  0  0  0  0  0
   21.1750    8.4550   20.1360 H   0  0  0  0  0  0  0  0  0  0  0  0
   18.1780    6.8850   19.3440 H   0  0  0  0  0  0  0  0  0  0  0  0
   19.8520    6.9590   18.7840 H   0  0  0  0  0  0  0  0  0  0  0  0
   18.5930    7.8110   17.8840 H   0  0  0  0  0  0  0  0  0  0  0  0
   21.6000   13.5250   21.3720 H   0  0  0  0  0  0  0  0  0  0  0  0
   21.7320   15.0400   23.3270 H   0  0  0  0  0  0  0  0  0  0  0  0
   22.1560   14.1290   25.5960 H   0  0  0  0  0  0  0  0  0  0  0  0
   22.8270    8.0580   24.5770 H   0  0  0  0  0  0  0  0  0  0  0  0
   22.7830    9.4040   25.6810 H   0  0  0  0  0  0  0  0  0  0  0  0
   21.5570   11.3520   18.9200 H   0  0  0  0  0  0  0  0  0  0  0  0
   23.2790   11.7070   17.2370 H   0  0  0  0  0  0  0  0  0  0  0  0
   25.6370   11.4660   17.7770 H   0  0  0  0  0  0  0  0  0  0  0  0
   24.6000   10.4520   21.8230 H   0  0  0  0  0  0  0  0  0  0  0  0
   26.6530    9.2870   21.6230 H   0  0  0  0  0  0  0  0  0  0  0  0
   30.5060   11.0890   21.0500 H   0  0  0  0  0  0  0  0  0  0  0  0
   27.3350   12.5910   18.9530 H   0  0  0  0  0  0  0  0  0  0  0  0
  1  2  1  0  0  0  0
  1 36  1  0  0  0  0
  1 37  1  0  0  0  0
  1 38  1  0  0  0  0
  2  3  1  0  0  0  0
  2 39  1  0  0  0  0
  2 40  1  0  0  0  0
  3  4  1  0  0  0  0
  3  8  1  0  0  0  0
  4  5  2  0  0  0  0
  4 41  1  0  0  0  0
  5  6  1  0  0  0  0
  5 11  1  0  0  0  0
  6  7  2  0  0  0  0
  6 42  1  0  0  0  0
  7  8  1  0  0  0  0
  7 10  1  0  0  0  0
  8  9  2  0  0  0  0
 10 43  1  0  0  0  0
 10 44  1  0  0  0  0
 10 45  1  0  0  0  0
 11 12  1  0  0  0  0
 11 19  1  0  0  0  0
 11 22  1  0  0  0  0
 12 13  1  0  0  0  0
 12 17  2  0  0  0  0
 13 14  2  0  0  0  0
 13 46  1  0  0  0  0
 14 15  1  0  0  0  0
 14 47  1  0  0  0  0
 15 16  2  0  0  0  0
 15 48  1  0  0  0  0
 16 17  1  0  0  0  0
 16 21  1  0  0  0  0
 17 18  1  0  0  0  0
 18 19  2  0  0  0  0
 18 20  1  0  0  0  0
 20 49  1  0  0  0  0
 20 50  1  0  0  0  0
 22 23  1  0  0  0  0
 22 27  2  0  0  0  0
 23 24  2  0  0  0  0
 23 51  1  0  0  0  0
 24 25  1  0  0  0  0
 24 52  1  0  0  0  0
 25 26  2  0  0  0  0
 25 53  1  0  0  0  0
 26 27  1  0  0  0  0
 26 28  1  0  0  0  0
 27 54  1  0  0  0  0
 28 29  1  0  0  0  0
 28 33  2  0  0  0  0
 29 30  2  0  0  0  0
 29 55  1  0  0  0  0
 30 31  1  0  0  0  0
 30 34  1  0  0  0  0
 31 32  2  0  0  0  0
 31 56  1  0  0  0  0
 32 33  1  0  0  0  0
 33 57  1  0  0  0  0
 34 35  3  0  0  0  0
M  END
>  <PARENT_CMPD_ID>
22924815_40

>  <STANDARD_TYPE>
IC50

>  <RELATION>
=

>  <STANDARD_VALUE>
8.2600002

>  <STANDARD_UNITS>
nM

>  <COMPOUND_KEY>
40

>  <PUBMED_ID>
22924815

>  <JOURNAL>
J.Med.Chem.

>  <YEAR>
2012

>  <VOLUME>
55

>  <FIRST_PAGE>
9346

>  <Company>
AstraZeneca

>  <idx>
377

>  <Model>
Valid

>  <target>
8.0830202

>  <des_pred_mlr>
7.5078602

>  <RF_Canvas>
7.7460628

>  <DNN_Canvas>
8.3764353

>  <pred_CoMFA>
9.0169001

>  <pred_COMSIA>
8.1548996

>  <pred_abm5>
8.1378145

>  <pred_ff8>
6.712255

>  <pred_gau6>
8.1098232

>  <CID>
BACE_377

>  <active>
1

>  <des_class_bayes>
1

>  <maacs_class_bayes>
1

>  <radial_class_bayes>
1

>  <dend_class_bayes>
1

>  <molprint_class_bayes>
1

>  <RF_canvas>
1

>  <DNN_canvas>
1

$$$$
mcl886_19
  MOE2015           3D

 74 77  0  0  1  0  0  0  0  0999 V2000
   18.6620   12.1810   29.4700 C   0  0  0  0  0  0  0  0  0  0  0  0
   19.6230   12.6620   30.5530 C   0  0  0  0  0  0  0  0  0  0  0  0
   20.2670   13.5780   29.5170 C   0  0  0  0  0  0  0  0  0  0  0  0
   19.6540   12.7000   28.4020 C   0  0  0  0  0  0  0  0  0  0  0  0
   20.6320   11.7010   27.8080 C   0  0  0  0  0  0  0  0  0  0  0  0
   19.0660   13.4680   27.3410 O   0  0  0  0  0  0  0  0  0  0  0  0
   18.4390   12.7540   26.3560 C   0  0  0  0  0  0  0  0  0  0  0  0
   17.4940   13.4390   25.6970 N   0  0  0  0  0  0  0  0  0  0  0  0
   16.8500   12.7880   24.7150 C   0  0  0  0  0  0  0  0  0  0  0  0
   17.0840   11.4650   24.3730 C   0  0  0  0  0  0  0  0  0  0  0  0
   16.2920   10.8020   23.2870 C   0  0  0  0  0  0  0  0  0  0  0  0
   14.9730   10.1320   23.7180 C   0  0  0  0  0  0  0  0  0  0  0  0
   14.0440   11.1070   24.4410 C   0  0  0  0  0  0  0  0  0  0  0  0
   15.2340    8.9260   24.6210 C   0  0  0  0  0  0  0  0  0  0  0  0
   14.2610    9.6420   22.4530 C   0  0  0  0  0  0  0  0  0  0  0  0
   18.0720   10.7890   25.0790 C   0  0  0  0  0  0  0  0  0  0  0  0
   18.7940   11.4420   26.0780 C   0  0  0  0  0  0  0  0  0  0  0  0
   19.8880   10.7650   26.8500 C   0  0  3  0  0  0  0  0  0  0  0  0
   20.9020   10.0480   25.9920 N   0  3  0  0  0  0  0  0  0  0  0  0
   21.6140   10.8720   24.9530 C   0  0  0  0  0  0  0  0  0  0  0  0
   22.1140    9.9290   23.8600 C   0  0  3  0  0  0  0  0  0  0  0  0
   21.0100    9.1200   23.4380 O   0  0  0  0  0  0  0  0  0  0  0  0
   22.7300   10.7010   22.6790 C   0  0  3  0  0  0  0  0  0  0  0  0
   23.8790   11.4860   23.1170 N   0  0  0  0  0  0  0  0  0  0  0  0
   23.7880   12.8410   23.3350 C   0  0  0  0  0  0  0  0  0  0  0  0
   25.0830   13.4790   23.7430 C   0  0  0  0  0  0  0  0  0  0  0  0
   22.7390   13.4660   23.2390 O   0  0  0  0  0  0  0  0  0  0  0  0
   23.1180    9.7620   21.5200 C   0  0  0  0  0  0  0  0  0  0  0  0
   23.8240   10.4850   20.4050 C   0  0  0  0  0  0  0  0  0  0  0  0
   25.1460   10.1720   20.0980 C   0  0  0  0  0  0  0  0  0  0  0  0
   25.8250   10.8790   19.1150 C   0  0  0  0  0  0  0  0  0  0  0  0
   25.1840   11.8990   18.4350 C   0  0  0  0  0  0  0  0  0  0  0  0
   26.0260   12.7740   17.2340 Cl  0  0  0  0  0  0  0  0  0  0  0  0
   23.8670   12.2120   18.7190 C   0  0  0  0  0  0  0  0  0  0  0  0
   23.1860   11.5020   19.6970 C   0  0  0  0  0  0  0  0  0  0  0  0
   17.6990   12.7070   29.4750 H   0  0  0  0  0  0  0  0  0  0  0  0
   18.4650   11.1050   29.4760 H   0  0  0  0  0  0  0  0  0  0  0  0
   20.2930   11.8790   30.9240 H   0  0  0  0  0  0  0  0  0  0  0  0
   19.1610   13.1640   31.4080 H   0  0  0  0  0  0  0  0  0  0  0  0
   21.3590   13.6260   29.5570 H   0  0  0  0  0  0  0  0  0  0  0  0
   19.8780   14.6040   29.5380 H   0  0  0  0  0  0  0  0  0  0  0  0
   21.1380   11.1110   28.5830 H   0  0  0  0  0  0  0  0  0  0  0  0
   21.4180   12.2600   27.2850 H   0  0  0  0  0  0  0  0  0  0  0  0
   16.1000   13.3810   24.1980 H   0  0  0  0  0  0  0  0  0  0  0  0
   16.9360   10.0660   22.7850 H   0  0  0  0  0  0  0  0  0  0  0  0
   16.0840   11.5570   22.5140 H   0  0  0  0  0  0  0  0  0  0  0  0
   14.4420   11.4120   25.4140 H   0  0  0  0  0  0  0  0  0  0  0  0
   13.0650   10.6500   24.6320 H   0  0  0  0  0  0  0  0  0  0  0  0
   13.8700   12.0090   23.8450 H   0  0  0  0  0  0  0  0  0  0  0  0
   15.6640    9.2210   25.5840 H   0  0  0  0  0  0  0  0  0  0  0  0
   15.9220    8.2150   24.1490 H   0  0  0  0  0  0  0  0  0  0  0  0
   14.3040    8.3860   24.8390 H   0  0  0  0  0  0  0  0  0  0  0  0
   14.0280   10.4740   21.7790 H   0  0  0  0  0  0  0  0  0  0  0  0
   13.3170    9.1400   22.6930 H   0  0  0  0  0  0  0  0  0  0  0  0
   14.8810    8.9290   21.8980 H   0  0  0  0  0  0  0  0  0  0  0  0
   18.2690    9.7460   24.8410 H   0  0  0  0  0  0  0  0  0  0  0  0
   19.4170    9.9720   27.4450 H   0  0  0  0  0  0  0  0  0  0  0  0
   20.4330    9.2920   25.4630 H   0  0  0  0  0  0  0  0  0  0  0  0
   21.5880    9.5640   26.5870 H   0  0  0  0  0  0  0  0  0  0  0  0
   22.4270   11.3990   25.4580 H   0  0  0  0  0  0  0  0  0  0  0  0
   20.8970   11.5870   24.5400 H   0  0  0  0  0  0  0  0  0  0  0  0
   22.8600    9.2480   24.2890 H   0  0  0  0  0  0  0  0  0  0  0  0
   20.5170    9.5840   22.7350 H   0  0  0  0  0  0  0  0  0  0  0  0
   21.9640   11.3880   22.2960 H   0  0  0  0  0  0  0  0  0  0  0  0
   24.7750   11.0240   23.2440 H   0  0  0  0  0  0  0  0  0  0  0  0
   25.9250   13.0200   23.2160 H   0  0  0  0  0  0  0  0  0  0  0  0
   25.2200   13.3580   24.8210 H   0  0  0  0  0  0  0  0  0  0  0  0
   25.0590   14.5440   23.4960 H   0  0  0  0  0  0  0  0  0  0  0  0
   22.2300    9.2700   21.1070 H   0  0  0  0  0  0  0  0  0  0  0  0
   23.7610    8.9600   21.9050 H   0  0  0  0  0  0  0  0  0  0  0  0
   25.6680    9.3780   20.6270 H   0  0  0  0  0  0  0  0  0  0  0  0
   26.8580   10.6270   18.8900 H   0  0  0  0  0  0  0  0  0  0  0  0
   23.3600   13.0110   18.1840 H   0  0  0  0  0  0  0  0  0  0  0  0
   22.1520   11.7650   19.9110 H   0  0  0  0  0  0  0  0  0  0  0  0
  1  2  1  0  0  0  0
  1  4  1  0  0  0  0
  1 36  1  0  0  0  0
  1 37  1  0  0  0  0
  2  3  1  0  0  0  0
  2 38  1  0  0  0  0
  2 39  1  0  0  0  0
  3  4  1  0  0  0  0
  3 40  1  0  0  0  0
  3 41  1  0  0  0  0
  4  5  1  0  0  0  0
  4  6  1  0  0  0  0
  5 18  1  0  0  0  0
  5 42  1  0  0  0  0
  5 43  1  0  0  0  0
  6  7  1  0  0  0  0
  7  8  1  0  0  0  0
  7 17  2  0  0  0  0
  8  9  2  0  0  0  0
  9 10  1  0  0  0  0
  9 44  1  0  0  0  0
 10 11  1  0  0  0  0
 10 16  2  0  0  0  0
 11 12  1  0  0  0  0
 11 45  1  0  0  0  0
 11 46  1  0  0  0  0
 12 13  1  0  0  0  0
 12 14  1  0  0  0  0
 12 15  1  0  0  0  0
 13 47  1  0  0  0  0
 13 48  1  0  0  0  0
 13 49  1  0  0  0  0
 14 50  1  0  0  0  0
 14 51  1  0  0  0  0
 14 52  1  0  0  0  0
 15 53  1  0  0  0  0
 15 54  1  0  0  0  0
 15 55  1  0  0  0  0
 16 17  1  0  0  0  0
 16 56  1  0  0  0  0
 17 18  1  0  0  0  0
 18 19  1  0  0  0  0
 18 57  1  0  0  0  0
 19 20  1  0  0  0  0
 19 58  1  0  0  0  0
 19 59  1  0  0  0  0
 20 21  1  0  0  0  0
 20 60  1  0  0  0  0
 20 61  1  0  0  0  0
 21 22  1  0  0  0  0
 21 23  1  0  0  0  0
 21 62  1  0  0  0  0
 22 63  1  0  0  0  0
 23 24  1  0  0  0  0
 23 28  1  0  0  0  0
 23 64  1  0  0  0  0
 24 25  1  0  0  0  0
 24 65  1  0  0  0  0
 25 26  1  0  0  0  0
 25 27  2  0  0  0  0
 26 66  1  0  0  0  0
 26 67  1  0  0  0  0
 26 68  1  0  0  0  0
 28 29  1  0  0  0  0
 28 69  1  0  0  0  0
 28 70  1  0  0  0  0
 29 30  1  0  0  0  0
 29 35  2  0  0  0  0
 30 31  2  0  0  0  0
 30 71  1  0  0  0  0
 31 32  1  0  0  0  0
 31 72  1  0  0  0  0
 32 33  1  0  0  0  0
 32 34  2  0  0  0  0
 34 35  1  0  0  0  0
 34 73  1  0  0  0  0
 35 74  1  0  0  0  0
M  CHG  1  19   1
M  END
>  <PARENT_CMPD_ID>
mcl886_19

>  <STANDARD_TYPE>
IC50

>  <RELATION>
=

>  <STANDARD_VALUE>
8.3000002

>  <STANDARD_UNITS>
nM

>  <COMPOUND_KEY>
19

>  <PUBMED_ID>
24900403

>  <JOURNAL>
ACS Med. Chem. Lett.

>  <YEAR>
2012

>  <VOLUME>
3

>  <FIRST_PAGE>
886

>  <Company>
Amgen

>  <idx>
378

>  <Model>
Valid

>  <target>
8.0809221

>  <des_pred_mlr>
6.8695502

>  <RF_Canvas>
7.9790411

>  <DNN_Canvas>
7.7959509

>  <pred_CoMFA>
7.8442001

>  <pred_COMSIA>
7.3979001

>  <pred_abm5>
7.9808888

>  <pred_ff8>
7.5274148

>  <pred_gau6>
7.7037139

>  <CID>
BACE_378

>  <active>
1

>  <des_class_bayes>
0

>  <maacs_class_bayes>
1

>  <radial_class_bayes>
0

>  <dend_class_bayes>
1

>  <molprint_class_bayes>
1

>  <RF_canvas>
1

>  <DNN_canvas>
1

$$$$
21078556_10c
  MOE2015           3D

 83 86  0  0  1  0  0  0  0  0999 V2000
   24.4500   16.2650   24.9120 C   0  0  0  0  0  0  0  0  0  0  0  0
   23.3860   16.1740   25.1080 H   0  0  0  0  0  0  0  0  0  0  0  0
   22.9290   13.7760   18.4420 F   0  0  0  0  0  0  0  0  0  0  0  0
   26.9870   14.4310   23.2500 N   0  0  0  0  0  0  0  0  0  0  0  0
   25.9320   13.6040   22.9430 C   0  0  0  0  0  0  0  0  0  0  0  0
   26.6440   10.9660   18.8980 F   0  0  0  0  0  0  0  0  0  0  0  0
   24.7850   14.0570   23.5630 C   0  0  0  0  0  0  0  0  0  0  0  0
   25.1370   15.2870   24.1810 C   0  0  0  0  0  0  0  0  0  0  0  0
   27.2300   16.5430   24.4020 N   0  0  0  0  0  0  0  0  0  0  0  0
   26.5000   15.4880   23.9820 C   0  0  0  0  0  0  0  0  0  0  0  0
   29.6200   10.2000   22.8150 C   0  0  0  0  0  0  0  0  0  0  0  0
   26.5140   17.4500   25.0920 C   0  0  0  0  0  0  0  0  0  0  0  0
   25.1620   17.3650   25.3710 C   0  0  0  0  0  0  0  0  0  0  0  0
   24.6670   18.1490   25.9340 H   0  0  0  0  0  0  0  0  0  0  0  0
   28.3320   14.2030   22.9430 C   0  0  0  0  0  0  0  0  0  0  0  0
   28.5890   13.7760   21.6460 N   0  0  0  0  0  0  0  0  0  0  0  0
   27.7480   14.0640   20.4980 C   0  0  0  0  0  0  0  0  0  0  0  0
   29.8370   13.0650   21.3940 C   0  0  0  0  0  0  0  0  0  0  0  0
   29.6560   11.6900   20.7610 C   0  0  0  0  0  0  0  0  0  0  0  0
   28.8690   10.6900   21.5980 C   0  0  0  0  0  0  0  0  0  0  0  0
   29.1450   14.3120   23.8480 O   0  0  0  0  0  0  0  0  0  0  0  0
   23.4910   13.3820   23.5240 C   0  0  0  0  0  0  0  0  0  0  0  0
   23.5810   12.0170   23.3340 N   0  0  0  0  0  0  0  0  0  0  0  0
   22.4450   11.1750   22.9810 C   0  0  3  0  0  0  0  0  0  0  0  0
   21.9310   10.3780   24.1970 C   0  0  3  0  0  0  0  0  0  0  0  0
   21.3560   11.3160   25.2580 C   0  0  0  0  0  0  0  0  0  0  0  0
   20.6980   10.5000   26.3340 N   0  3  0  0  0  0  0  0  0  0  0  0
   19.6040   11.1830   27.0890 C   0  0  0  0  0  0  0  0  0  0  0  0
   18.5120   11.7440   26.2270 C   0  0  0  0  0  0  0  0  0  0  0  0
   22.4160   13.9590   23.6530 O   0  0  0  0  0  0  0  0  0  0  0  0
   22.8230   10.2490   21.8040 C   0  0  0  0  0  0  0  0  0  0  0  0
   23.4920   10.9780   20.6690 C   0  0  0  0  0  0  0  0  0  0  0  0
   24.7730   10.6110   20.2620 C   0  0  0  0  0  0  0  0  0  0  0  0
   25.4070   11.3140   19.2530 C   0  0  0  0  0  0  0  0  0  0  0  0
   24.8000   12.3820   18.6290 C   0  0  0  0  0  0  0  0  0  0  0  0
   23.5300   12.7390   19.0250 C   0  0  0  0  0  0  0  0  0  0  0  0
   22.8680   12.0460   20.0260 C   0  0  0  0  0  0  0  0  0  0  0  0
   20.9130    9.4490   23.8010 O   0  0  0  0  0  0  0  0  0  0  0  0
   17.6620   10.9030   25.5110 C   0  0  0  0  0  0  0  0  0  0  0  0
   16.6760   11.4340   24.6770 C   0  0  0  0  0  0  0  0  0  0  0  0
   16.5530   12.8170   24.5530 C   0  0  0  0  0  0  0  0  0  0  0  0
   17.3910   13.6570   25.2640 C   0  0  0  0  0  0  0  0  0  0  0  0
   18.3620   13.1250   26.0990 C   0  0  0  0  0  0  0  0  0  0  0  0
   15.7530   10.5260   23.9090 C   0  0  0  0  0  0  0  0  0  0  0  0
   15.6630    9.5630   24.4270 H   0  0  0  0  0  0  0  0  0  0  0  0
   14.7440   10.9550   23.8980 H   0  0  0  0  0  0  0  0  0  0  0  0
   16.2280   10.2930   22.4860 C   0  0  0  0  0  0  0  0  0  0  0  0
   26.1050   12.7180   22.3490 H   0  0  0  0  0  0  0  0  0  0  0  0
   29.0370    9.4330   23.3350 H   0  0  0  0  0  0  0  0  0  0  0  0
   29.8060   11.0130   23.5240 H   0  0  0  0  0  0  0  0  0  0  0  0
   30.5820    9.7600   22.5360 H   0  0  0  0  0  0  0  0  0  0  0  0
   27.0900   18.3060   25.4390 H   0  0  0  0  0  0  0  0  0  0  0  0
   27.0140   14.8440   20.7160 H   0  0  0  0  0  0  0  0  0  0  0  0
   27.2380   13.1520   20.1970 H   0  0  0  0  0  0  0  0  0  0  0  0
   28.3760   14.4170   19.6730 H   0  0  0  0  0  0  0  0  0  0  0  0
   30.4140   12.9680   22.3190 H   0  0  0  0  0  0  0  0  0  0  0  0
   30.4340   13.6960   20.7250 H   0  0  0  0  0  0  0  0  0  0  0  0
   30.6470   11.2740   20.5380 H   0  0  0  0  0  0  0  0  0  0  0  0
   29.1540   11.8000   19.7920 H   0  0  0  0  0  0  0  0  0  0  0  0
   27.9050   11.1110   21.9020 H   0  0  0  0  0  0  0  0  0  0  0  0
   28.6390    9.8220   20.9680 H   0  0  0  0  0  0  0  0  0  0  0  0
   24.4930   11.5780   23.4130 H   0  0  0  0  0  0  0  0  0  0  0  0
   21.6320   11.8260   22.6330 H   0  0  0  0  0  0  0  0  0  0  0  0
   22.7460    9.7890   24.6350 H   0  0  0  0  0  0  0  0  0  0  0  0
   20.5990   11.9570   24.8020 H   0  0  0  0  0  0  0  0  0  0  0  0
   22.1160   11.9330   25.7450 H   0  0  0  0  0  0  0  0  0  0  0  0
   21.4020   10.1310   26.9850 H   0  0  0  0  0  0  0  0  0  0  0  0
   20.3030    9.6750   25.8500 H   0  0  0  0  0  0  0  0  0  0  0  0
   20.0860   11.9620   27.6900 H   0  0  0  0  0  0  0  0  0  0  0  0
   19.1950   10.4390   27.7810 H   0  0  0  0  0  0  0  0  0  0  0  0
   21.9320    9.7430   21.4120 H   0  0  0  0  0  0  0  0  0  0  0  0
   23.4900    9.4580   22.1730 H   0  0  0  0  0  0  0  0  0  0  0  0
   25.2990    9.7830   20.7290 H   0  0  0  0  0  0  0  0  0  0  0  0
   25.3090   12.9290   17.8440 H   0  0  0  0  0  0  0  0  0  0  0  0
   21.8670   12.3660   20.3020 H   0  0  0  0  0  0  0  0  0  0  0  0
   20.2800    9.8920   23.2020 H   0  0  0  0  0  0  0  0  0  0  0  0
   17.7540    9.8230   25.6010 H   0  0  0  0  0  0  0  0  0  0  0  0
   15.7930   13.2460   23.9030 H   0  0  0  0  0  0  0  0  0  0  0  0
   17.2880   14.7350   25.1670 H   0  0  0  0  0  0  0  0  0  0  0  0
   19.0110   13.8110   26.6410 H   0  0  0  0  0  0  0  0  0  0  0  0
   15.5400    9.6230   21.9620 H   0  0  0  0  0  0  0  0  0  0  0  0
   17.2240    9.8380   22.4710 H   0  0  0  0  0  0  0  0  0  0  0  0
   16.2800   11.2320   21.9240 H   0  0  0  0  0  0  0  0  0  0  0  0
  1  2  1  0  0  0  0
  1  8  1  0  0  0  0
  1 13  2  0  0  0  0
  3 36  1  0  0  0  0
  4  5  1  0  0  0  0
  4 10  1  0  0  0  0
  4 15  1  0  0  0  0
  5  7  2  0  0  0  0
  5 48  1  0  0  0  0
  6 34  1  0  0  0  0
  7  8  1  0  0  0  0
  7 22  1  0  0  0  0
  8 10  2  0  0  0  0
  9 10  1  0  0  0  0
  9 12  2  0  0  0  0
 11 20  1  0  0  0  0
 11 49  1  0  0  0  0
 11 50  1  0  0  0  0
 11 51  1  0  0  0  0
 12 13  1  0  0  0  0
 12 52  1  0  0  0  0
 13 14  1  0  0  0  0
 15 16  1  0  0  0  0
 15 21  2  0  0  0  0
 16 17  1  0  0  0  0
 16 18  1  0  0  0  0
 17 53  1  0  0  0  0
 17 54  1  0  0  0  0
 17 55  1  0  0  0  0
 18 19  1  0  0  0  0
 18 56  1  0  0  0  0
 18 57  1  0  0  0  0
 19 20  1  0  0  0  0
 19 58  1  0  0  0  0
 19 59  1  0  0  0  0
 20 60  1  0  0  0  0
 20 61  1  0  0  0  0
 22 23  1  0  0  0  0
 22 30  2  0  0  0  0
 23 24  1  0  0  0  0
 23 62  1  0  0  0  0
 24 25  1  0  0  0  0
 24 31  1  0  0  0  0
 24 63  1  0  0  0  0
 25 26  1  0  0  0  0
 25 38  1  0  0  0  0
 25 64  1  0  0  0  0
 26 27  1  0  0  0  0
 26 65  1  0  0  0  0
 26 66  1  0  0  0  0
 27 28  1  0  0  0  0
 27 67  1  0  0  0  0
 27 68  1  0  0  0  0
 28 29  1  0  0  0  0
 28 69  1  0  0  0  0
 28 70  1  0  0  0  0
 29 39  1  0  0  0  0
 29 43  2  0  0  0  0
 31 32  1  0  0  0  0
 31 71  1  0  0  0  0
 31 72  1  0  0  0  0
 32 33  1  0  0  0  0
 32 37  2  0  0  0  0
 33 34  2  0  0  0  0
 33 73  1  0  0  0  0
 34 35  1  0  0  0  0
 35 36  2  0  0  0  0
 35 74  1  0  0  0  0
 36 37  1  0  0  0  0
 37 75  1  0  0  0  0
 38 76  1  0  0  0  0
 39 40  2  0  0  0  0
 39 77  1  0  0  0  0
 40 41  1  0  0  0  0
 40 44  1  0  0  0  0
 41 42  2  0  0  0  0
 41 78  1  0  0  0  0
 42 43  1  0  0  0  0
 42 79  1  0  0  0  0
 43 80  1  0  0  0  0
 44 45  1  0  0  0  0
 44 46  1  0  0  0  0
 44 47  1  0  0  0  0
 47 81  1  0  0  0  0
 47 82  1  0  0  0  0
 47 83  1  0  0  0  0
M  CHG  1  27   1
M  END
>  <PARENT_CMPD_ID>
21078556_10c

>  <STANDARD_TYPE>
IC50

>  <RELATION>
=

>  <STANDARD_VALUE>
8.6000004

>  <STANDARD_UNITS>
nM

>  <COMPOUND_KEY>
10c

>  <PUBMED_ID>
21078556

>  <JOURNAL>
Bioorg.Med.Chem.Lett.

>  <YEAR>
2011

>  <VOLUME>
21

>  <FIRST_PAGE>
537

>  <Company>
BMS

>  <idx>
379

>  <Model>
Valid

>  <target>
8.0655012

>  <des_pred_mlr>
7.8000002

>  <RF_Canvas>
7.7485628

>  <DNN_Canvas>
7.5597658

>  <pred_CoMFA>
8.1041002

>  <pred_COMSIA>
8.4916

>  <pred_abm5>
8.2281313

>  <pred_ff8>
6.8430629

>  <pred_gau6>
8.4037647

>  <CID>
BACE_379

>  <active>
1

>  <des_class_bayes>
1

>  <maacs_class_bayes>
1

>  <radial_class_bayes>
1

>  <dend_class_bayes>
1

>  <molprint_class_bayes>
1

>  <RF_canvas>
1

>  <DNN_canvas>
1

$$$$
CHEMBL566603
  MOE2015           3D

 74 76  0  0  1  0  0  0  0  0999 V2000
   24.2410   12.9580   22.9860 C   0  0  0  0  0  0  0  0  0  0  0  0
   22.4470   10.0760   23.8680 C   0  0  3  0  0  0  0  0  0  0  0  0
   23.5540    9.7790   21.5650 C   0  0  0  0  0  0  0  0  0  0  0  0
   25.5740   10.1830   20.1120 C   0  0  0  0  0  0  0  0  0  0  0  0
   24.2870   12.1960   18.7310 C   0  0  0  0  0  0  0  0  0  0  0  0
   22.1100   11.1340   24.9090 C   0  0  0  0  0  0  0  0  0  0  0  0
   20.4950   11.5750   26.8240 C   0  0  0  0  0  0  0  0  0  0  0  0
   21.5690   12.5340   27.3660 C   0  0  0  0  0  0  0  0  0  0  0  0
   21.1190   13.4900   28.4310 C   0  0  0  0  0  0  0  0  0  0  0  0
   19.3700   12.1940   25.9950 C   0  0  0  0  0  0  0  0  0  0  0  0
   17.2290   13.2570   24.5200 C   0  0  0  0  0  0  0  0  0  0  0  0
   18.3390   11.3820   25.4930 C   0  0  0  0  0  0  0  0  0  0  0  0
   23.6590   13.1750   18.0810 F   0  0  0  0  0  0  0  0  0  0  0  0
   23.6080   11.4940   19.7120 C   0  0  0  0  0  0  0  0  0  0  0  0
   25.5980   11.9040   18.4230 C   0  0  0  0  0  0  0  0  0  0  0  0
   26.2280   10.8920   19.1160 C   0  0  0  0  0  0  0  0  0  0  0  0
   27.4960   10.5940   18.8300 F   0  0  0  0  0  0  0  0  0  0  0  0
   24.2520   10.4860   20.4300 C   0  0  0  0  0  0  0  0  0  0  0  0
   23.1180   10.7640   22.6630 C   0  0  3  0  0  0  0  0  0  0  0  0
   24.2560   11.5830   23.0830 N   0  0  0  0  0  0  0  0  0  0  0  0
   23.2610   13.6100   22.6470 O   0  0  0  0  0  0  0  0  0  0  0  0
   25.5390   13.6010   23.3770 C   0  0  0  0  0  0  0  0  0  0  0  0
   21.2240    9.4240   23.5160 O   0  0  0  0  0  0  0  0  0  0  0  0
   21.2720   10.5440   26.0040 N   0  3  0  0  0  0  0  0  0  0  0  0
   19.9780   13.0430   29.3160 C   0  0  0  0  0  0  0  0  0  0  0  0
   19.2030   11.7880   29.0030 C   0  0  0  0  0  0  0  0  0  0  0  0
   19.9290   10.8420   28.0600 C   0  0  0  0  0  0  0  0  0  0  0  0
   19.3060   13.5530   25.6960 C   0  0  0  0  0  0  0  0  0  0  0  0
   17.2580   11.8860   24.7530 C   0  0  0  0  0  0  0  0  0  0  0  0
   18.2410   14.0800   24.9840 C   0  0  0  0  0  0  0  0  0  0  0  0
   16.1860   10.9440   24.2110 C   0  0  0  0  0  0  0  0  0  0  0  0
   15.6590   10.0230   25.3210 C   0  0  0  0  0  0  0  0  0  0  0  0
   14.9680   11.6700   23.6220 C   0  0  0  0  0  0  0  0  0  0  0  0
   16.8010   10.0890   23.0970 C   0  0  0  0  0  0  0  0  0  0  0  0
   23.1120    9.3230   24.3050 H   0  0  0  0  0  0  0  0  0  0  0  0
   24.2210    9.0220   21.9970 H   0  0  0  0  0  0  0  0  0  0  0  0
   22.6860    9.2400   21.1660 H   0  0  0  0  0  0  0  0  0  0  0  0
   26.1170    9.4030   20.6380 H   0  0  0  0  0  0  0  0  0  0  0  0
   21.5270   11.9380   24.4490 H   0  0  0  0  0  0  0  0  0  0  0  0
   23.0140   11.5370   25.3730 H   0  0  0  0  0  0  0  0  0  0  0  0
   22.0320   13.1270   26.5670 H   0  0  0  0  0  0  0  0  0  0  0  0
   22.3910   11.9400   27.7950 H   0  0  0  0  0  0  0  0  0  0  0  0
   20.8240   14.4420   27.9750 H   0  0  0  0  0  0  0  0  0  0  0  0
   21.9870   13.7150   29.0640 H   0  0  0  0  0  0  0  0  0  0  0  0
   16.4280   13.7260   23.9550 H   0  0  0  0  0  0  0  0  0  0  0  0
   18.3730   10.3110   25.6820 H   0  0  0  0  0  0  0  0  0  0  0  0
   22.5770   11.7670   19.9180 H   0  0  0  0  0  0  0  0  0  0  0  0
   26.1220   12.4560   17.6520 H   0  0  0  0  0  0  0  0  0  0  0  0
   22.3650   11.4270   22.2180 H   0  0  0  0  0  0  0  0  0  0  0  0
   25.0950   11.1260   23.4300 H   0  0  0  0  0  0  0  0  0  0  0  0
   26.3870   13.0080   23.0210 H   0  0  0  0  0  0  0  0  0  0  0  0
   25.5870   13.6850   24.4650 H   0  0  0  0  0  0  0  0  0  0  0  0
   25.6030   14.5970   22.9310 H   0  0  0  0  0  0  0  0  0  0  0  0
   20.7350    9.9740   22.8740 H   0  0  0  0  0  0  0  0  0  0  0  0
   21.8570    9.9540   26.6100 H   0  0  0  0  0  0  0  0  0  0  0  0
   20.6240    9.8910   25.5320 H   0  0  0  0  0  0  0  0  0  0  0  0
   18.2410   12.0930   28.5760 H   0  0  0  0  0  0  0  0  0  0  0  0
   18.9810   11.2710   29.9440 H   0  0  0  0  0  0  0  0  0  0  0  0
   20.7480   10.3620   28.6130 H   0  0  0  0  0  0  0  0  0  0  0  0
   19.2500   10.0280   27.7760 H   0  0  0  0  0  0  0  0  0  0  0  0
   20.0820   14.2520   25.9900 H   0  0  0  0  0  0  0  0  0  0  0  0
   18.2080   15.1470   24.7700 H   0  0  0  0  0  0  0  0  0  0  0  0
   15.2800   10.6040   26.1710 H   0  0  0  0  0  0  0  0  0  0  0  0
   16.4230    9.3390   25.7040 H   0  0  0  0  0  0  0  0  0  0  0  0
   14.8370    9.3940   24.9590 H   0  0  0  0  0  0  0  0  0  0  0  0
   14.4900   12.3250   24.3600 H   0  0  0  0  0  0  0  0  0  0  0  0
   14.2050   10.9570   23.2830 H   0  0  0  0  0  0  0  0  0  0  0  0
   15.2340   12.2770   22.7490 H   0  0  0  0  0  0  0  0  0  0  0  0
   17.6320    9.4740   23.4600 H   0  0  0  0  0  0  0  0  0  0  0  0
   17.1910   10.7130   22.2840 H   0  0  0  0  0  0  0  0  0  0  0  0
   16.0610    9.4060   22.6640 H   0  0  0  0  0  0  0  0  0  0  0  0
   19.5910   13.7860   30.3060 N   0  0  0  0  0  0  0  0  0  0  0  0
   20.4030   14.9030   30.3560 O   0  0  0  0  0  0  0  0  0  0  0  0
   20.0400   15.3920   31.1180 H   0  0  0  0  0  0  0  0  0  0  0  0
  1 20  1  0  0  0  0
  1 21  2  0  0  0  0
  1 22  1  0  0  0  0
  2  6  1  0  0  0  0
  2 19  1  0  0  0  0
  2 23  1  0  0  0  0
  2 35  1  0  0  0  0
  3 18  1  0  0  0  0
  3 19  1  0  0  0  0
  3 36  1  0  0  0  0
  3 37  1  0  0  0  0
  4 16  2  0  0  0  0
  4 18  1  0  0  0  0
  4 38  1  0  0  0  0
  5 13  1  0  0  0  0
  5 14  1  0  0  0  0
  5 15  2  0  0  0  0
  6 24  1  0  0  0  0
  6 39  1  0  0  0  0
  6 40  1  0  0  0  0
  7  8  1  0  0  0  0
  7 10  1  0  0  0  0
  7 24  1  0  0  0  0
  7 27  1  0  0  0  0
  8  9  1  0  0  0  0
  8 41  1  0  0  0  0
  8 42  1  0  0  0  0
  9 25  1  0  0  0  0
  9 43  1  0  0  0  0
  9 44  1  0  0  0  0
 10 12  2  0  0  0  0
 10 28  1  0  0  0  0
 11 29  2  0  0  0  0
 11 30  1  0  0  0  0
 11 45  1  0  0  0  0
 12 29  1  0  0  0  0
 12 46  1  0  0  0  0
 14 18  2  0  0  0  0
 14 47  1  0  0  0  0
 15 16  1  0  0  0  0
 15 48  1  0  0  0  0
 16 17  1  0  0  0  0
 19 20  1  0  0  0  0
 19 49  1  0  0  0  0
 20 50  1  0  0  0  0
 22 51  1  0  0  0  0
 22 52  1  0  0  0  0
 22 53  1  0  0  0  0
 23 54  1  0  0  0  0
 24 55  1  0  0  0  0
 24 56  1  0  0  0  0
 25 26  1  0  0  0  0
 25 72  2  0  0  0  0
 26 27  1  0  0  0  0
 26 57  1  0  0  0  0
 26 58  1  0  0  0  0
 27 59  1  0  0  0  0
 27 60  1  0  0  0  0
 28 30  2  0  0  0  0
 28 61  1  0  0  0  0
 29 31  1  0  0  0  0
 30 62  1  0  0  0  0
 31 32  1  0  0  0  0
 31 33  1  0  0  0  0
 31 34  1  0  0  0  0
 32 63  1  0  0  0  0
 32 64  1  0  0  0  0
 32 65  1  0  0  0  0
 33 66  1  0  0  0  0
 33 67  1  0  0  0  0
 33 68  1  0  0  0  0
 34 69  1  0  0  0  0
 34 70  1  0  0  0  0
 34 71  1  0  0  0  0
 72 73  1  0  0  0  0
 73 74  1  0  0  0  0
M  CHG  1  24   1
M  END
>  <PARENT_CMPD_ID>
CHEMBL566603

>  <STANDARD_TYPE>
IC50

>  <RELATION>
=

>  <STANDARD_VALUE>
8.8000002

>  <STANDARD_UNITS>
nM

>  <COMPOUND_KEY>
43

>  <PUBMED_ID>
19811916

>  <JOURNAL>
Bioorg. Med. Chem. Lett.

>  <YEAR>
2009

>  <VOLUME>
19

>  <FIRST_PAGE>
6386

>  <Company>
Elan

>  <idx>
380

>  <Model>
Valid

>  <target>
8.0555172

>  <des_pred_mlr>
6.7322302

>  <RF_Canvas>
7.5206046

>  <DNN_Canvas>
7.7229753

>  <pred_CoMFA>
7.6905999

>  <pred_COMSIA>
7.8428001

>  <pred_abm5>
7.5283837

>  <pred_ff8>
6.9599547

>  <pred_gau6>
7.72224

>  <CID>
BACE_380

>  <active>
1

>  <des_class_bayes>
1

>  <maacs_class_bayes>
0

>  <radial_class_bayes>
1

>  <dend_class_bayes>
1

>  <molprint_class_bayes>
1

>  <RF_canvas>
1

>  <DNN_canvas>
1

$$$$
CHEMBL550271
  MOE2015           3D

 90 93  0  0  1  0  0  0  0  0999 V2000
   14.9140   11.2330   23.2130 C   0  0  0  0  0  0  0  0  0  0  0  0
   15.9130   10.5130   23.9170 O   0  0  0  0  0  0  0  0  0  0  0  0
   16.7360   11.2500   24.7160 C   0  0  0  0  0  0  0  0  0  0  0  0
   16.6660   12.6140   24.9780 C   0  0  0  0  0  0  0  0  0  0  0  0
   17.5940   13.2040   25.8330 C   0  0  0  0  0  0  0  0  0  0  0  0
   18.5970   12.4370   26.4210 C   0  0  0  0  0  0  0  0  0  0  0  0
   18.6930   11.0750   26.1390 C   0  0  0  0  0  0  0  0  0  0  0  0
   19.7850   10.1910   26.6690 C   0  0  0  0  0  0  0  0  0  0  0  0
   21.1570   10.7260   26.5150 N   0  3  0  0  0  0  0  0  0  0  0  0
   21.5510   11.2860   25.1840 C   0  0  0  0  0  0  0  0  0  0  0  0
   22.2740   10.2630   24.3000 C   0  0  2  0  0  0  0  0  0  0  0  0
   23.3810    9.7300   25.0290 O   0  0  0  0  0  0  0  0  0  0  0  0
   22.7790   10.9510   23.0150 C   0  0  3  0  0  0  0  0  0  0  0  0
   23.2520    9.9890   21.9120 C   0  0  0  0  0  0  0  0  0  0  0  0
   23.8240   10.7310   20.7230 C   0  0  0  0  0  0  0  0  0  0  0  0
   23.0790   11.6990   20.0440 C   0  0  0  0  0  0  0  0  0  0  0  0
   23.6490   12.4250   19.0080 C   0  0  0  0  0  0  0  0  0  0  0  0
   22.9270   13.3630   18.3950 F   0  0  0  0  0  0  0  0  0  0  0  0
   24.9450   12.1970   18.6020 C   0  0  0  0  0  0  0  0  0  0  0  0
   25.6720   11.2220   19.2510 C   0  0  0  0  0  0  0  0  0  0  0  0
   26.9220   10.9710   18.8580 F   0  0  0  0  0  0  0  0  0  0  0  0
   25.1320   10.4940   20.3030 C   0  0  0  0  0  0  0  0  0  0  0  0
   23.8750   11.8610   23.3490 N   0  0  0  0  0  0  0  0  0  0  0  0
   23.6790   13.2160   23.4670 C   0  0  0  0  0  0  0  0  0  0  0  0
   22.5560   13.7050   23.4230 O   0  0  0  0  0  0  0  0  0  0  0  0
   24.9050   14.0250   23.6710 C   0  0  0  0  0  0  0  0  0  0  0  0
   26.1640   13.5910   23.2120 C   0  0  0  0  0  0  0  0  0  0  0  0
   27.3080   14.3640   23.3860 C   0  0  0  0  0  0  0  0  0  0  0  0
   27.1580   15.5910   24.0220 C   0  0  0  0  0  0  0  0  0  0  0  0
   25.9010   16.0330   24.4370 C   0  0  0  0  0  0  0  0  0  0  0  0
   24.7680   15.2570   24.2890 C   0  0  0  0  0  0  0  0  0  0  0  0
   25.7660   17.4290   24.8700 C   0  0  0  0  0  0  0  0  0  0  0  0
   25.8290   18.4460   24.0600 N   0  0  0  0  0  0  0  0  0  0  0  0
   25.8550   18.0020   22.7250 O   0  0  0  0  0  0  0  0  0  0  0  0
   26.9340   18.5980   22.0030 C   0  0  0  0  0  0  0  0  0  0  0  0
   27.5520   17.5360   21.1220 C   0  0  0  0  0  0  0  0  0  0  0  0
   26.7490   16.6840   20.3510 C   0  0  0  0  0  0  0  0  0  0  0  0
   27.3220   15.7060   19.5430 C   0  0  0  0  0  0  0  0  0  0  0  0
   28.6980   15.5780   19.4810 C   0  0  0  0  0  0  0  0  0  0  0  0
   29.5030   16.4070   20.2450 C   0  0  0  0  0  0  0  0  0  0  0  0
   28.9390   17.3830   21.0560 C   0  0  0  0  0  0  0  0  0  0  0  0
   25.5790   17.6610   26.3350 C   0  0  0  0  0  0  0  0  0  0  0  0
   28.6250   13.9320   22.9680 N   0  0  0  0  0  0  0  0  0  0  0  0
   29.7920   14.3170   23.7850 C   0  0  0  0  0  0  0  0  0  0  0  0
   28.9330   12.9820   21.6000 S   0  0  0  0  0  0  0  0  0  0  0  0
   30.2380   13.3370   21.0770 O   0  0  0  0  0  0  0  0  0  0  0  0
   27.7630   12.9170   20.7520 O   0  0  0  0  0  0  0  0  0  0  0  0
   29.1290   11.3680   22.3060 C   0  0  0  0  0  0  0  0  0  0  0  0
   17.7420   10.4960   25.3030 C   0  0  0  0  0  0  0  0  0  0  0  0
   14.3610   10.5210   22.5930 H   0  0  0  0  0  0  0  0  0  0  0  0
   15.3580   11.9800   22.5450 H   0  0  0  0  0  0  0  0  0  0  0  0
   14.2010   11.6970   23.9030 H   0  0  0  0  0  0  0  0  0  0  0  0
   15.8960   13.2410   24.5400 H   0  0  0  0  0  0  0  0  0  0  0  0
   17.5300   14.2690   26.0440 H   0  0  0  0  0  0  0  0  0  0  0  0
   19.3040   12.9290   27.0850 H   0  0  0  0  0  0  0  0  0  0  0  0
   19.7910    9.2180   26.1650 H   0  0  0  0  0  0  0  0  0  0  0  0
   19.6340   10.0120   27.7390 H   0  0  0  0  0  0  0  0  0  0  0  0
   21.8430    9.9880   26.7440 H   0  0  0  0  0  0  0  0  0  0  0  0
   21.2990   11.4600   27.2190 H   0  0  0  0  0  0  0  0  0  0  0  0
   20.6840   11.7200   24.6820 H   0  0  0  0  0  0  0  0  0  0  0  0
   22.2310   12.0980   25.4550 H   0  0  0  0  0  0  0  0  0  0  0  0
   21.5960    9.4390   24.0560 H   0  0  0  0  0  0  0  0  0  0  0  0
   24.0660   10.4210   25.0830 H   0  0  0  0  0  0  0  0  0  0  0  0
   21.9440   11.5350   22.6070 H   0  0  0  0  0  0  0  0  0  0  0  0
   24.0090    9.3070   22.3190 H   0  0  0  0  0  0  0  0  0  0  0  0
   22.4180    9.3640   21.5720 H   0  0  0  0  0  0  0  0  0  0  0  0
   22.0530   11.9210   20.3220 H   0  0  0  0  0  0  0  0  0  0  0  0
   25.3830   12.7640   17.7900 H   0  0  0  0  0  0  0  0  0  0  0  0
   25.7520    9.7430   20.7860 H   0  0  0  0  0  0  0  0  0  0  0  0
   24.8000   11.4630   23.4480 H   0  0  0  0  0  0  0  0  0  0  0  0
   26.2490   12.6520   22.6790 H   0  0  0  0  0  0  0  0  0  0  0  0
   28.0070   16.2610   24.1330 H   0  0  0  0  0  0  0  0  0  0  0  0
   23.7920   15.6320   24.5850 H   0  0  0  0  0  0  0  0  0  0  0  0
   26.5410   19.4120   21.3860 H   0  0  0  0  0  0  0  0  0  0  0  0
   27.6820   19.0080   22.6930 H   0  0  0  0  0  0  0  0  0  0  0  0
   25.6650   16.7700   20.3870 H   0  0  0  0  0  0  0  0  0  0  0  0
   26.6890   15.0400   18.9650 H   0  0  0  0  0  0  0  0  0  0  0  0
   29.1460   14.8140   18.8510 H   0  0  0  0  0  0  0  0  0  0  0  0
   30.5820   16.2820   20.2120 H   0  0  0  0  0  0  0  0  0  0  0  0
   29.5910   18.0200   21.6470 H   0  0  0  0  0  0  0  0  0  0  0  0
   24.6200   18.1610   26.5010 H   0  0  0  0  0  0  0  0  0  0  0  0
   26.3830   18.3040   26.7050 H   0  0  0  0  0  0  0  0  0  0  0  0
   25.5910   16.7250   26.9000 H   0  0  0  0  0  0  0  0  0  0  0  0
   29.5460   14.2970   24.8520 H   0  0  0  0  0  0  0  0  0  0  0  0
   30.1330   15.3190   23.5080 H   0  0  0  0  0  0  0  0  0  0  0  0
   30.6270   13.6230   23.6520 H   0  0  0  0  0  0  0  0  0  0  0  0
   29.9690   11.3740   23.0030 H   0  0  0  0  0  0  0  0  0  0  0  0
   29.3320   10.6670   21.4930 H   0  0  0  0  0  0  0  0  0  0  0  0
   28.2060   11.0820   22.8130 H   0  0  0  0  0  0  0  0  0  0  0  0
   17.7770    9.4300   25.0770 H   0  0  0  0  0  0  0  0  0  0  0  0
  1  2  1  0  0  0  0
  1 50  1  0  0  0  0
  1 51  1  0  0  0  0
  1 52  1  0  0  0  0
  2  3  1  0  0  0  0
  3  4  1  0  0  0  0
  3 49  2  0  0  0  0
  4  5  2  0  0  0  0
  4 53  1  0  0  0  0
  5  6  1  0  0  0  0
  5 54  1  0  0  0  0
  6  7  2  0  0  0  0
  6 55  1  0  0  0  0
  7  8  1  0  0  0  0
  7 49  1  0  0  0  0
  8  9  1  0  0  0  0
  8 56  1  0  0  0  0
  8 57  1  0  0  0  0
  9 10  1  0  0  0  0
  9 58  1  0  0  0  0
  9 59  1  0  0  0  0
 10 11  1  0  0  0  0
 10 60  1  0  0  0  0
 10 61  1  0  0  0  0
 11 12  1  0  0  0  0
 11 13  1  0  0  0  0
 11 62  1  0  0  0  0
 12 63  1  0  0  0  0
 13 14  1  0  0  0  0
 13 23  1  0  0  0  0
 13 64  1  0  0  0  0
 14 15  1  0  0  0  0
 14 65  1  0  0  0  0
 14 66  1  0  0  0  0
 15 16  2  0  0  0  0
 15 22  1  0  0  0  0
 16 17  1  0  0  0  0
 16 67  1  0  0  0  0
 17 18  1  0  0  0  0
 17 19  2  0  0  0  0
 19 20  1  0  0  0  0
 19 68  1  0  0  0  0
 20 21  1  0  0  0  0
 20 22  2  0  0  0  0
 22 69  1  0  0  0  0
 23 24  1  0  0  0  0
 23 70  1  0  0  0  0
 24 25  2  0  0  0  0
 24 26  1  0  0  0  0
 26 27  2  0  0  0  0
 26 31  1  0  0  0  0
 27 28  1  0  0  0  0
 27 71  1  0  0  0  0
 28 29  2  0  0  0  0
 28 43  1  0  0  0  0
 29 30  1  0  0  0  0
 29 72  1  0  0  0  0
 30 31  2  0  0  0  0
 30 32  1  0  0  0  0
 31 73  1  0  0  0  0
 32 33  2  0  0  0  0
 32 42  1  0  0  0  0
 33 34  1  0  0  0  0
 34 35  1  0  0  0  0
 35 36  1  0  0  0  0
 35 74  1  0  0  0  0
 35 75  1  0  0  0  0
 36 37  1  0  0  0  0
 36 41  2  0  0  0  0
 37 38  2  0  0  0  0
 37 76  1  0  0  0  0
 38 39  1  0  0  0  0
 38 77  1  0  0  0  0
 39 40  2  0  0  0  0
 39 78  1  0  0  0  0
 40 41  1  0  0  0  0
 40 79  1  0  0  0  0
 41 80  1  0  0  0  0
 42 81  1  0  0  0  0
 42 82  1  0  0  0  0
 42 83  1  0  0  0  0
 43 44  1  0  0  0  0
 43 45  1  0  0  0  0
 44 84  1  0  0  0  0
 44 85  1  0  0  0  0
 44 86  1  0  0  0  0
 45 46  2  0  0  0  0
 45 47  2  0  0  0  0
 45 48  1  0  0  0  0
 48 87  1  0  0  0  0
 48 88  1  0  0  0  0
 48 89  1  0  0  0  0
 49 90  1  0  0  0  0
M  CHG  1   9   1
M  END
>  <PARENT_CMPD_ID>
CHEMBL550271

>  <STANDARD_TYPE>
IC50

>  <RELATION>
=

>  <STANDARD_VALUE>
9

>  <STANDARD_UNITS>
nM

>  <COMPOUND_KEY>
5i

>  <PUBMED_ID>
19375914

>  <JOURNAL>
Bioorg. Med. Chem. Lett.

>  <YEAR>
2009

>  <VOLUME>
19

>  <FIRST_PAGE>
2654

>  <Company>
BMS

>  <idx>
381

>  <Model>
Valid

>  <target>
8.0457573

>  <des_pred_mlr>
7.8797998

>  <RF_Canvas>
7.5436139

>  <DNN_Canvas>
7.7542577

>  <pred_CoMFA>
7.5502

>  <pred_COMSIA>
8.4623003

>  <pred_abm5>
6.9436855

>  <pred_ff8>
6.4072151

>  <pred_gau6>
7.3821926

>  <CID>
BACE_381

>  <active>
1

>  <des_class_bayes>
1

>  <maacs_class_bayes>
0

>  <radial_class_bayes>
1

>  <dend_class_bayes>
1

>  <molprint_class_bayes>
1

>  <RF_canvas>
1

>  <DNN_canvas>
1

$$$$
CHEMBL553458
  MOE2015           3D

 84 87  0  0  1  0  0  0  0  0999 V2000
   14.8990   11.2130   23.2670 C   0  0  0  0  0  0  0  0  0  0  0  0
   15.9310   10.5020   23.9320 O   0  0  0  0  0  0  0  0  0  0  0  0
   16.7570   11.2410   24.7260 C   0  0  0  0  0  0  0  0  0  0  0  0
   16.6740   12.6010   25.0000 C   0  0  0  0  0  0  0  0  0  0  0  0
   17.6030   13.1940   25.8520 C   0  0  0  0  0  0  0  0  0  0  0  0
   18.6190   12.4330   26.4250 C   0  0  0  0  0  0  0  0  0  0  0  0
   18.7340   11.0760   26.1260 C   0  0  0  0  0  0  0  0  0  0  0  0
   19.8390   10.2010   26.6450 C   0  0  0  0  0  0  0  0  0  0  0  0
   21.2050   10.7490   26.4960 N   0  3  0  0  0  0  0  0  0  0  0  0
   21.6090   11.3000   25.1660 C   0  0  0  0  0  0  0  0  0  0  0  0
   22.3100   10.2700   24.2720 C   0  0  2  0  0  0  0  0  0  0  0  0
   23.4210    9.7430   25.0000 O   0  0  0  0  0  0  0  0  0  0  0  0
   22.8040   10.9660   22.9840 C   0  0  3  0  0  0  0  0  0  0  0  0
   23.3270   10.0110   21.8970 C   0  0  0  0  0  0  0  0  0  0  0  0
   23.8830   10.7580   20.7060 C   0  0  0  0  0  0  0  0  0  0  0  0
   25.2080   10.5750   20.3130 C   0  0  0  0  0  0  0  0  0  0  0  0
   25.7360   11.3200   19.2680 C   0  0  0  0  0  0  0  0  0  0  0  0
   27.0100   11.1420   18.9180 F   0  0  0  0  0  0  0  0  0  0  0  0
   24.9750   12.2530   18.5960 C   0  0  0  0  0  0  0  0  0  0  0  0
   23.6630   12.4290   18.9790 C   0  0  0  0  0  0  0  0  0  0  0  0
   22.9140   13.3380   18.3540 F   0  0  0  0  0  0  0  0  0  0  0  0
   23.1070   11.6880   20.0110 C   0  0  0  0  0  0  0  0  0  0  0  0
   23.8470   11.9300   23.3200 N   0  0  0  0  0  0  0  0  0  0  0  0
   23.5840   13.2730   23.4070 C   0  0  0  0  0  0  0  0  0  0  0  0
   22.4500   13.7310   23.3520 O   0  0  0  0  0  0  0  0  0  0  0  0
   24.7590   14.1240   23.6480 C   0  0  0  0  0  0  0  0  0  0  0  0
   25.9420   13.9610   22.9200 C   0  0  0  0  0  0  0  0  0  0  0  0
   27.0610   14.7430   23.2110 C   0  0  0  0  0  0  0  0  0  0  0  0
   26.9700   15.6840   24.2330 C   0  0  0  0  0  0  0  0  0  0  0  0
   25.7670   15.8640   24.9080 C   0  0  0  0  0  0  0  0  0  0  0  0
   24.6510   15.1020   24.6170 C   0  0  0  0  0  0  0  0  0  0  0  0
   25.6620   16.8860   25.9490 C   0  0  0  0  0  0  0  0  0  0  0  0
   25.4700   16.6620   27.2140 N   0  0  0  0  0  0  0  0  0  0  0  0
   25.3810   15.3000   27.5300 O   0  0  0  0  0  0  0  0  0  0  0  0
   25.7910   18.3080   25.4900 C   0  0  0  0  0  0  0  0  0  0  0  0
   28.2750   14.6760   22.4160 N   0  0  0  0  0  0  0  0  0  0  0  0
   28.8550   13.3840   22.0980 C   0  0  0  0  0  0  0  0  0  0  0  0
   29.7270   13.1750   21.0340 C   0  0  0  0  0  0  0  0  0  0  0  0
   30.1920   11.9020   20.7150 C   0  0  0  0  0  0  0  0  0  0  0  0
   29.8330   10.8100   21.4820 C   0  0  0  0  0  0  0  0  0  0  0  0
   29.0520   11.0000   22.6020 C   0  0  0  0  0  0  0  0  0  0  0  0
   28.5940   12.2790   22.9180 C   0  0  0  0  0  0  0  0  0  0  0  0
   28.6410   16.0690   21.4720 S   0  0  0  0  0  0  0  0  0  0  0  0
   27.9450   17.2280   21.9990 O   0  0  0  0  0  0  0  0  0  0  0  0
   30.0700   16.1400   21.2380 O   0  0  0  0  0  0  0  0  0  0  0  0
   27.8540   15.6680   19.9300 C   0  0  0  0  0  0  0  0  0  0  0  0
   17.7800   10.4940   25.2940 C   0  0  0  0  0  0  0  0  0  0  0  0
   14.3390   10.4980   22.6560 H   0  0  0  0  0  0  0  0  0  0  0  0
   15.3100   11.9740   22.5950 H   0  0  0  0  0  0  0  0  0  0  0  0
   14.1990   11.6560   23.9840 H   0  0  0  0  0  0  0  0  0  0  0  0
   15.8930   13.2250   24.5760 H   0  0  0  0  0  0  0  0  0  0  0  0
   17.5280   14.2560   26.0760 H   0  0  0  0  0  0  0  0  0  0  0  0
   19.3220   12.9260   27.0920 H   0  0  0  0  0  0  0  0  0  0  0  0
   19.8540    9.2320   26.1330 H   0  0  0  0  0  0  0  0  0  0  0  0
   19.6910   10.0110   27.7140 H   0  0  0  0  0  0  0  0  0  0  0  0
   21.9160   10.0400   26.7390 H   0  0  0  0  0  0  0  0  0  0  0  0
   21.3280   11.4950   27.1920 H   0  0  0  0  0  0  0  0  0  0  0  0
   20.7470   11.7540   24.6720 H   0  0  0  0  0  0  0  0  0  0  0  0
   22.3050   12.0990   25.4400 H   0  0  0  0  0  0  0  0  0  0  0  0
   21.6210    9.4510   24.0380 H   0  0  0  0  0  0  0  0  0  0  0  0
   23.6960    8.9070   24.5780 H   0  0  0  0  0  0  0  0  0  0  0  0
   21.9470   11.5080   22.5630 H   0  0  0  0  0  0  0  0  0  0  0  0
   24.1060    9.3640   22.3180 H   0  0  0  0  0  0  0  0  0  0  0  0
   22.5210    9.3500   21.5570 H   0  0  0  0  0  0  0  0  0  0  0  0
   25.8540    9.8640   20.8210 H   0  0  0  0  0  0  0  0  0  0  0  0
   25.3990   12.8340   17.7850 H   0  0  0  0  0  0  0  0  0  0  0  0
   22.0700   11.8730   20.2760 H   0  0  0  0  0  0  0  0  0  0  0  0
   24.7820   11.5800   23.5020 H   0  0  0  0  0  0  0  0  0  0  0  0
   25.9770   13.2440   22.1030 H   0  0  0  0  0  0  0  0  0  0  0  0
   27.8300   16.3010   24.4830 H   0  0  0  0  0  0  0  0  0  0  0  0
   23.7230   15.2500   25.1630 H   0  0  0  0  0  0  0  0  0  0  0  0
   25.3470   15.3240   28.5030 H   0  0  0  0  0  0  0  0  0  0  0  0
   25.7800   18.3890   24.3990 H   0  0  0  0  0  0  0  0  0  0  0  0
   26.7290   18.7250   25.8680 H   0  0  0  0  0  0  0  0  0  0  0  0
   24.9580   18.8960   25.8880 H   0  0  0  0  0  0  0  0  0  0  0  0
   30.0820   13.9730   20.3940 H   0  0  0  0  0  0  0  0  0  0  0  0
   30.8470   11.7670   19.8570 H   0  0  0  0  0  0  0  0  0  0  0  0
   30.1970    9.8190   21.2270 H   0  0  0  0  0  0  0  0  0  0  0  0
   28.8090   10.1600   23.2460 H   0  0  0  0  0  0  0  0  0  0  0  0
   28.0190   12.3850   23.8340 H   0  0  0  0  0  0  0  0  0  0  0  0
   26.7900   15.4970   20.1110 H   0  0  0  0  0  0  0  0  0  0  0  0
   28.3050   14.8020   19.4540 H   0  0  0  0  0  0  0  0  0  0  0  0
   27.9680   16.5330   19.2700 H   0  0  0  0  0  0  0  0  0  0  0  0
   17.8270    9.4310   25.0580 H   0  0  0  0  0  0  0  0  0  0  0  0
  1  2  1  0  0  0  0
  1 48  1  0  0  0  0
  1 49  1  0  0  0  0
  1 50  1  0  0  0  0
  2  3  1  0  0  0  0
  3  4  1  0  0  0  0
  3 47  2  0  0  0  0
  4  5  2  0  0  0  0
  4 51  1  0  0  0  0
  5  6  1  0  0  0  0
  5 52  1  0  0  0  0
  6  7  2  0  0  0  0
  6 53  1  0  0  0  0
  7  8  1  0  0  0  0
  7 47  1  0  0  0  0
  8  9  1  0  0  0  0
  8 54  1  0  0  0  0
  8 55  1  0  0  0  0
  9 10  1  0  0  0  0
  9 56  1  0  0  0  0
  9 57  1  0  0  0  0
 10 11  1  0  0  0  0
 10 58  1  0  0  0  0
 10 59  1  0  0  0  0
 11 12  1  0  0  0  0
 11 13  1  0  0  0  0
 11 60  1  0  0  0  0
 12 61  1  0  0  0  0
 13 14  1  0  0  0  0
 13 23  1  0  0  0  0
 13 62  1  0  0  0  0
 14 15  1  0  0  0  0
 14 63  1  0  0  0  0
 14 64  1  0  0  0  0
 15 16  2  0  0  0  0
 15 22  1  0  0  0  0
 16 17  1  0  0  0  0
 16 65  1  0  0  0  0
 17 18  1  0  0  0  0
 17 19  2  0  0  0  0
 19 20  1  0  0  0  0
 19 66  1  0  0  0  0
 20 21  1  0  0  0  0
 20 22  2  0  0  0  0
 22 67  1  0  0  0  0
 23 24  1  0  0  0  0
 23 68  1  0  0  0  0
 24 25  2  0  0  0  0
 24 26  1  0  0  0  0
 26 27  2  0  0  0  0
 26 31  1  0  0  0  0
 27 28  1  0  0  0  0
 27 69  1  0  0  0  0
 28 29  2  0  0  0  0
 28 36  1  0  0  0  0
 29 30  1  0  0  0  0
 29 70  1  0  0  0  0
 30 31  2  0  0  0  0
 30 32  1  0  0  0  0
 31 71  1  0  0  0  0
 32 33  2  0  0  0  0
 32 35  1  0  0  0  0
 33 34  1  0  0  0  0
 34 72  1  0  0  0  0
 35 73  1  0  0  0  0
 35 74  1  0  0  0  0
 35 75  1  0  0  0  0
 36 37  1  0  0  0  0
 36 43  1  0  0  0  0
 37 38  1  0  0  0  0
 37 42  2  0  0  0  0
 38 39  2  0  0  0  0
 38 76  1  0  0  0  0
 39 40  1  0  0  0  0
 39 77  1  0  0  0  0
 40 41  2  0  0  0  0
 40 78  1  0  0  0  0
 41 42  1  0  0  0  0
 41 79  1  0  0  0  0
 42 80  1  0  0  0  0
 43 44  2  0  0  0  0
 43 45  2  0  0  0  0
 43 46  1  0  0  0  0
 46 81  1  0  0  0  0
 46 82  1  0  0  0  0
 46 83  1  0  0  0  0
 47 84  1  0  0  0  0
M  CHG  1   9   1
M  END
>  <PARENT_CMPD_ID>
CHEMBL553458

>  <STANDARD_TYPE>
IC50

>  <RELATION>
=

>  <STANDARD_VALUE>
9

>  <STANDARD_UNITS>
nM

>  <COMPOUND_KEY>
6d

>  <PUBMED_ID>
19375914

>  <JOURNAL>
Bioorg. Med. Chem. Lett.

>  <YEAR>
2009

>  <VOLUME>
19

>  <FIRST_PAGE>
2654

>  <Company>
BMS

>  <idx>
382

>  <Model>
Valid

>  <target>
8.0457573

>  <des_pred_mlr>
7.8080001

>  <RF_Canvas>
7.8549342

>  <DNN_Canvas>
7.9404583

>  <pred_CoMFA>
7.3203001

>  <pred_COMSIA>
8.3354998

>  <pred_abm5>
7.1882758

>  <pred_ff8>
6.2263813

>  <pred_gau6>
7.3953524

>  <CID>
BACE_382

>  <active>
1

>  <des_class_bayes>
1

>  <maacs_class_bayes>
0

>  <radial_class_bayes>
1

>  <dend_class_bayes>
1

>  <molprint_class_bayes>
1

>  <RF_canvas>
1

>  <DNN_canvas>
1

$$$$
CHEMBL550208
  MOE2015           3D

 71 75  0  0  1  0  0  0  0  0999 V2000
   29.6390   11.0680   21.5930 C   0  0  0  0  0  0  0  0  0  0  0  0
   29.3490   12.4450   21.0420 C   0  0  0  0  0  0  0  0  0  0  0  0
   29.1310   13.4320   22.0780 N   0  0  0  0  0  0  0  0  0  0  0  0
   30.0800   14.3180   22.5010 C   0  0  0  0  0  0  0  0  0  0  0  0
   29.5100   15.1450   23.4360 C   0  0  0  0  0  0  0  0  0  0  0  0
   30.0980   16.3350   24.0990 C   0  0  0  0  0  0  0  0  0  0  0  0
   30.1850   16.2630   25.6070 C   0  0  0  0  0  0  0  0  0  0  0  0
   28.6720   15.8980   26.4920 S   0  0  0  0  0  0  0  0  0  0  0  0
   28.5420   16.8620   27.5650 O   0  0  0  0  0  0  0  0  0  0  0  0
   28.6760   14.4840   26.8040 O   0  0  0  0  0  0  0  0  0  0  0  0
   27.4280   16.2150   25.3730 N   0  0  0  0  0  0  0  0  0  0  0  0
   26.3340   17.0840   25.8200 C   0  0  0  0  0  0  0  0  0  0  0  0
   27.1430   15.1550   24.4510 C   0  0  0  0  0  0  0  0  0  0  0  0
   25.9050   14.5130   24.4060 C   0  0  0  0  0  0  0  0  0  0  0  0
   25.7000   13.4500   23.5360 C   0  0  0  0  0  0  0  0  0  0  0  0
   26.7190   13.0000   22.6890 C   0  0  0  0  0  0  0  0  0  0  0  0
   27.9580   13.6350   22.7600 C   0  0  0  0  0  0  0  0  0  0  0  0
   28.1770   14.6990   23.6180 C   0  0  0  0  0  0  0  0  0  0  0  0
   24.3580   12.8170   23.4800 C   0  0  0  0  0  0  0  0  0  0  0  0
   23.3270   13.4680   23.5920 O   0  0  0  0  0  0  0  0  0  0  0  0
   24.3580   11.4610   23.2420 N   0  0  0  0  0  0  0  0  0  0  0  0
   23.1470   10.7250   22.9020 C   0  0  3  0  0  0  0  0  0  0  0  0
   23.4440    9.7580   21.7330 C   0  0  0  0  0  0  0  0  0  0  0  0
   24.2810   10.3850   20.6440 C   0  0  0  0  0  0  0  0  0  0  0  0
   23.8770   11.5600   20.0100 C   0  0  0  0  0  0  0  0  0  0  0  0
   24.6940   12.1700   19.0670 C   0  0  0  0  0  0  0  0  0  0  0  0
   25.9110   11.6020   18.7300 C   0  0  0  0  0  0  0  0  0  0  0  0
   26.3120   10.4210   19.3340 C   0  0  0  0  0  0  0  0  0  0  0  0
   25.5020    9.8150   20.2860 C   0  0  0  0  0  0  0  0  0  0  0  0
   22.5650   10.0010   24.1330 C   0  0  2  0  0  0  0  0  0  0  0  0
   21.4150    9.2060   23.8030 O   0  0  0  0  0  0  0  0  0  0  0  0
   22.1250   11.0000   25.2090 C   0  0  0  0  0  0  0  0  0  0  0  0
   21.1570   10.2950   26.1100 N   0  3  0  0  0  0  0  0  0  0  0  0
   20.1910   11.1740   26.8010 C   0  0  0  0  0  0  0  0  0  0  0  0
   18.7390   10.7990   26.6860 C   0  0  0  0  0  0  0  0  0  0  0  0
   19.2350   12.0170   25.9910 C   0  0  0  0  0  0  0  0  0  0  0  0
   29.8120   10.3600   20.7770 H   0  0  0  0  0  0  0  0  0  0  0  0
   28.8040   10.6920   22.1950 H   0  0  0  0  0  0  0  0  0  0  0  0
   30.5290   11.0770   22.2310 H   0  0  0  0  0  0  0  0  0  0  0  0
   28.4620   12.4320   20.4000 H   0  0  0  0  0  0  0  0  0  0  0  0
   30.1860   12.7860   20.4220 H   0  0  0  0  0  0  0  0  0  0  0  0
   31.0750   14.3190   22.0740 H   0  0  0  0  0  0  0  0  0  0  0  0
   29.5110   17.2170   23.8110 H   0  0  0  0  0  0  0  0  0  0  0  0
   31.1070   16.5110   23.7020 H   0  0  0  0  0  0  0  0  0  0  0  0
   30.5460   17.2250   25.9890 H   0  0  0  0  0  0  0  0  0  0  0  0
   30.9060   15.4960   25.9100 H   0  0  0  0  0  0  0  0  0  0  0  0
   25.6540   17.3120   24.9930 H   0  0  0  0  0  0  0  0  0  0  0  0
   26.7280   18.0440   26.1670 H   0  0  0  0  0  0  0  0  0  0  0  0
   25.7640   16.6150   26.6270 H   0  0  0  0  0  0  0  0  0  0  0  0
   25.0940   14.8320   25.0550 H   0  0  0  0  0  0  0  0  0  0  0  0
   26.5530   12.2030   21.9730 H   0  0  0  0  0  0  0  0  0  0  0  0
   25.2350   10.9500   23.2810 H   0  0  0  0  0  0  0  0  0  0  0  0
   22.3970   11.4420   22.5410 H   0  0  0  0  0  0  0  0  0  0  0  0
   23.9670    8.8760   22.1270 H   0  0  0  0  0  0  0  0  0  0  0  0
   22.5100    9.3900   21.2910 H   0  0  0  0  0  0  0  0  0  0  0  0
   22.9250   12.0250   20.2550 H   0  0  0  0  0  0  0  0  0  0  0  0
   24.3710   13.0890   18.5840 H   0  0  0  0  0  0  0  0  0  0  0  0
   26.5460   12.0760   17.9860 H   0  0  0  0  0  0  0  0  0  0  0  0
   27.2650    9.9710   19.0670 H   0  0  0  0  0  0  0  0  0  0  0  0
   25.8430    8.8950   20.7550 H   0  0  0  0  0  0  0  0  0  0  0  0
   23.3080    9.3180   24.5600 H   0  0  0  0  0  0  0  0  0  0  0  0
   21.0030    9.5420   22.9830 H   0  0  0  0  0  0  0  0  0  0  0  0
   21.5890   11.8370   24.7560 H   0  0  0  0  0  0  0  0  0  0  0  0
   22.9520   11.3730   25.8210 H   0  0  0  0  0  0  0  0  0  0  0  0
   21.6530    9.7030   26.7880 H   0  0  0  0  0  0  0  0  0  0  0  0
   20.6690    9.6280   25.4800 H   0  0  0  0  0  0  0  0  0  0  0  0
   20.5330   11.6020   27.7400 H   0  0  0  0  0  0  0  0  0  0  0  0
   18.4450    9.9540   26.0750 H   0  0  0  0  0  0  0  0  0  0  0  0
   18.1120   10.9360   27.5610 H   0  0  0  0  0  0  0  0  0  0  0  0
   18.9520   12.9840   26.3930 H   0  0  0  0  0  0  0  0  0  0  0  0
   19.2740   11.9920   24.9080 H   0  0  0  0  0  0  0  0  0  0  0  0
  1  2  1  0  0  0  0
  1 37  1  0  0  0  0
  1 38  1  0  0  0  0
  1 39  1  0  0  0  0
  2  3  1  0  0  0  0
  2 40  1  0  0  0  0
  2 41  1  0  0  0  0
  3  4  1  0  0  0  0
  3 17  1  0  0  0  0
  4  5  2  0  0  0  0
  4 42  1  0  0  0  0
  5  6  1  0  0  0  0
  5 18  1  0  0  0  0
  6  7  1  0  0  0  0
  6 43  1  0  0  0  0
  6 44  1  0  0  0  0
  7  8  1  0  0  0  0
  7 45  1  0  0  0  0
  7 46  1  0  0  0  0
  8  9  2  0  0  0  0
  8 10  2  0  0  0  0
  8 11  1  0  0  0  0
 11 12  1  0  0  0  0
 11 13  1  0  0  0  0
 12 47  1  0  0  0  0
 12 48  1  0  0  0  0
 12 49  1  0  0  0  0
 13 14  1  0  0  0  0
 13 18  2  0  0  0  0
 14 15  2  0  0  0  0
 14 50  1  0  0  0  0
 15 16  1  0  0  0  0
 15 19  1  0  0  0  0
 16 17  2  0  0  0  0
 16 51  1  0  0  0  0
 17 18  1  0  0  0  0
 19 20  2  0  0  0  0
 19 21  1  0  0  0  0
 21 22  1  0  0  0  0
 21 52  1  0  0  0  0
 22 23  1  0  0  0  0
 22 30  1  0  0  0  0
 22 53  1  0  0  0  0
 23 24  1  0  0  0  0
 23 54  1  0  0  0  0
 23 55  1  0  0  0  0
 24 25  1  0  0  0  0
 24 29  2  0  0  0  0
 25 26  2  0  0  0  0
 25 56  1  0  0  0  0
 26 27  1  0  0  0  0
 26 57  1  0  0  0  0
 27 28  2  0  0  0  0
 27 58  1  0  0  0  0
 28 29  1  0  0  0  0
 28 59  1  0  0  0  0
 29 60  1  0  0  0  0
 30 31  1  0  0  0  0
 30 32  1  0  0  0  0
 30 61  1  0  0  0  0
 31 62  1  0  0  0  0
 32 33  1  0  0  0  0
 32 63  1  0  0  0  0
 32 64  1  0  0  0  0
 33 34  1  0  0  0  0
 33 65  1  0  0  0  0
 33 66  1  0  0  0  0
 34 35  1  0  0  0  0
 34 36  1  0  0  0  0
 34 67  1  0  0  0  0
 35 36  1  0  0  0  0
 35 68  1  0  0  0  0
 35 69  1  0  0  0  0
 36 70  1  0  0  0  0
 36 71  1  0  0  0  0
M  CHG  1  33   1
M  END
>  <PARENT_CMPD_ID>
CHEMBL550208

>  <STANDARD_TYPE>
IC50

>  <RELATION>
=

>  <STANDARD_VALUE>
9

>  <STANDARD_UNITS>
nM

>  <COMPOUND_KEY>
15

>  <PUBMED_ID>
19406640

>  <JOURNAL>
Bioorg. Med. Chem. Lett.

>  <YEAR>
2009

>  <VOLUME>
19

>  <FIRST_PAGE>
3674

>  <Company>
GSK

>  <idx>
383

>  <Model>
Valid

>  <target>
8.0457573

>  <des_pred_mlr>
6.8733101

>  <RF_Canvas>
7.5775585

>  <DNN_Canvas>
7.352047

>  <pred_CoMFA>
6.5472002

>  <pred_COMSIA>
6.0718999

>  <pred_abm5>
6.5563807

>  <pred_ff8>
7.6917362

>  <pred_gau6>
6.3898149

>  <CID>
BACE_383

>  <active>
1

>  <des_class_bayes>
1

>  <maacs_class_bayes>
1

>  <radial_class_bayes>
1

>  <dend_class_bayes>
1

>  <molprint_class_bayes>
1

>  <RF_canvas>
1

>  <DNN_canvas>
1

$$$$
CHEMBL561961
  MOE2015           3D

 80 84  0  0  1  0  0  0  0  0999 V2000
   29.4750   12.4180   19.8900 C   0  0  0  0  0  0  0  0  0  0  0  0
   29.5500   12.0910   21.3610 C   0  0  0  0  0  0  0  0  0  0  0  0
   29.2280   13.2680   22.2100 C   0  0  0  0  0  0  0  0  0  0  0  0
   30.1010   14.2520   22.6140 C   0  0  0  0  0  0  0  0  0  0  0  0
   29.4350   15.1000   23.4420 N   0  0  0  0  0  0  0  0  0  0  0  0
   29.9850   16.2980   24.0360 C   0  0  0  0  0  0  0  0  0  0  0  0
   30.1460   16.2670   25.5390 C   0  0  0  0  0  0  0  0  0  0  0  0
   28.6620   15.9050   26.4670 S   0  0  0  0  0  0  0  0  0  0  0  0
   28.5460   16.8710   27.5380 O   0  0  0  0  0  0  0  0  0  0  0  0
   28.6680   14.4920   26.7780 O   0  0  0  0  0  0  0  0  0  0  0  0
   27.4170   16.2340   25.3470 N   0  0  0  0  0  0  0  0  0  0  0  0
   26.3220   17.0920   25.8120 C   0  0  0  0  0  0  0  0  0  0  0  0
   27.1290   15.1740   24.4310 C   0  0  0  0  0  0  0  0  0  0  0  0
   25.8870   14.5350   24.3880 C   0  0  0  0  0  0  0  0  0  0  0  0
   25.6760   13.4450   23.5540 C   0  0  0  0  0  0  0  0  0  0  0  0
   26.7090   12.9610   22.7480 C   0  0  0  0  0  0  0  0  0  0  0  0
   27.9720   13.5630   22.8030 C   0  0  0  0  0  0  0  0  0  0  0  0
   28.1440   14.6720   23.6150 C   0  0  0  0  0  0  0  0  0  0  0  0
   24.3350   12.8100   23.5110 C   0  0  0  0  0  0  0  0  0  0  0  0
   23.3080   13.4710   23.5980 O   0  0  0  0  0  0  0  0  0  0  0  0
   24.3300   11.4450   23.3090 N   0  0  0  0  0  0  0  0  0  0  0  0
   23.1130   10.6990   23.0070 C   0  0  3  0  0  0  0  0  0  0  0  0
   23.3650    9.7800   21.7860 C   0  0  0  0  0  0  0  0  0  0  0  0
   24.2090   10.4040   20.7030 C   0  0  0  0  0  0  0  0  0  0  0  0
   23.8140   11.5830   20.0730 C   0  0  0  0  0  0  0  0  0  0  0  0
   24.6290   12.1820   19.1200 C   0  0  0  0  0  0  0  0  0  0  0  0
   25.8380   11.6010   18.7740 C   0  0  0  0  0  0  0  0  0  0  0  0
   26.2350   10.4210   19.3810 C   0  0  0  0  0  0  0  0  0  0  0  0
   25.4250    9.8240   20.3390 C   0  0  0  0  0  0  0  0  0  0  0  0
   22.5920    9.9130   24.2350 C   0  0  3  0  0  0  0  0  0  0  0  0
   21.4300    9.1410   23.8940 O   0  0  0  0  0  0  0  0  0  0  0  0
   22.2650   10.7830   25.4620 C   0  0  0  0  0  0  0  0  0  0  0  0
   20.8980   10.4180   25.9820 N   0  3  0  0  0  0  0  0  0  0  0  0
   19.8200   11.3700   25.5630 C   0  0  0  0  0  0  0  0  0  0  0  0
   19.6910   12.5180   26.5510 C   0  0  0  0  0  0  0  0  0  0  0  0
   18.6460   13.5110   26.0550 C   0  0  0  0  0  0  0  0  0  0  0  0
   17.3060   12.8540   25.7890 C   0  0  0  0  0  0  0  0  0  0  0  0
   17.4210   11.6060   24.9320 C   0  0  0  0  0  0  0  0  0  0  0  0
   18.4850   10.6470   25.4560 C   0  0  0  0  0  0  0  0  0  0  0  0
   29.6650   11.5240   19.2880 H   0  0  0  0  0  0  0  0  0  0  0  0
   30.2200   13.1730   19.6130 H   0  0  0  0  0  0  0  0  0  0  0  0
   28.4910   12.8120   19.6160 H   0  0  0  0  0  0  0  0  0  0  0  0
   30.5570   11.7280   21.6020 H   0  0  0  0  0  0  0  0  0  0  0  0
   28.8660   11.2630   21.5850 H   0  0  0  0  0  0  0  0  0  0  0  0
   31.1490   14.3970   22.3800 H   0  0  0  0  0  0  0  0  0  0  0  0
   30.9620   16.4810   23.5730 H   0  0  0  0  0  0  0  0  0  0  0  0
   29.3410   17.1310   23.7260 H   0  0  0  0  0  0  0  0  0  0  0  0
   30.5040   17.2430   25.8830 H   0  0  0  0  0  0  0  0  0  0  0  0
   30.8850   15.5130   25.8320 H   0  0  0  0  0  0  0  0  0  0  0  0
   25.6340   17.3260   24.9920 H   0  0  0  0  0  0  0  0  0  0  0  0
   26.7140   18.0520   26.1650 H   0  0  0  0  0  0  0  0  0  0  0  0
   25.7600   16.6130   26.6190 H   0  0  0  0  0  0  0  0  0  0  0  0
   25.0720   14.8750   25.0220 H   0  0  0  0  0  0  0  0  0  0  0  0
   26.5550   12.1270   22.0710 H   0  0  0  0  0  0  0  0  0  0  0  0
   25.2060   10.9350   23.3490 H   0  0  0  0  0  0  0  0  0  0  0  0
   22.3330   11.4130   22.7130 H   0  0  0  0  0  0  0  0  0  0  0  0
   23.8580    8.8610   22.1320 H   0  0  0  0  0  0  0  0  0  0  0  0
   22.4100    9.4640   21.3480 H   0  0  0  0  0  0  0  0  0  0  0  0
   22.8680   12.0550   20.3270 H   0  0  0  0  0  0  0  0  0  0  0  0
   24.3110   13.1030   18.6360 H   0  0  0  0  0  0  0  0  0  0  0  0
   26.4710   12.0670   18.0230 H   0  0  0  0  0  0  0  0  0  0  0  0
   27.1830    9.9630   19.1110 H   0  0  0  0  0  0  0  0  0  0  0  0
   25.7610    8.9020   20.8070 H   0  0  0  0  0  0  0  0  0  0  0  0
   23.3630    9.1940   24.5420 H   0  0  0  0  0  0  0  0  0  0  0  0
   21.6970    8.4330   23.2770 H   0  0  0  0  0  0  0  0  0  0  0  0
   22.2860   11.8570   25.2730 H   0  0  0  0  0  0  0  0  0  0  0  0
   22.9700   10.5730   26.2740 H   0  0  0  0  0  0  0  0  0  0  0  0
   20.9000   10.2330   26.9920 H   0  0  0  0  0  0  0  0  0  0  0  0
   20.7110    9.5200   25.4890 H   0  0  0  0  0  0  0  0  0  0  0  0
   20.1010   11.7430   24.5690 H   0  0  0  0  0  0  0  0  0  0  0  0
   19.4090   12.1460   27.5440 H   0  0  0  0  0  0  0  0  0  0  0  0
   20.6490   13.0370   26.6680 H   0  0  0  0  0  0  0  0  0  0  0  0
   18.5240   14.3140   26.7900 H   0  0  0  0  0  0  0  0  0  0  0  0
   19.0070   13.9830   25.1320 H   0  0  0  0  0  0  0  0  0  0  0  0
   16.6270   13.5710   25.3130 H   0  0  0  0  0  0  0  0  0  0  0  0
   16.8480   12.5820   26.7490 H   0  0  0  0  0  0  0  0  0  0  0  0
   17.6690   11.8950   23.9020 H   0  0  0  0  0  0  0  0  0  0  0  0
   16.4520   11.0960   24.8900 H   0  0  0  0  0  0  0  0  0  0  0  0
   18.5640    9.7950   24.7700 H   0  0  0  0  0  0  0  0  0  0  0  0
   18.1810   10.2440   26.4300 H   0  0  0  0  0  0  0  0  0  0  0  0
  1  2  1  0  0  0  0
  1 40  1  0  0  0  0
  1 41  1  0  0  0  0
  1 42  1  0  0  0  0
  2  3  1  0  0  0  0
  2 43  1  0  0  0  0
  2 44  1  0  0  0  0
  3  4  2  0  0  0  0
  3 17  1  0  0  0  0
  4  5  1  0  0  0  0
  4 45  1  0  0  0  0
  5  6  1  0  0  0  0
  5 18  1  0  0  0  0
  6  7  1  0  0  0  0
  6 46  1  0  0  0  0
  6 47  1  0  0  0  0
  7  8  1  0  0  0  0
  7 48  1  0  0  0  0
  7 49  1  0  0  0  0
  8  9  2  0  0  0  0
  8 10  2  0  0  0  0
  8 11  1  0  0  0  0
 11 12  1  0  0  0  0
 11 13  1  0  0  0  0
 12 50  1  0  0  0  0
 12 51  1  0  0  0  0
 12 52  1  0  0  0  0
 13 14  1  0  0  0  0
 13 18  2  0  0  0  0
 14 15  2  0  0  0  0
 14 53  1  0  0  0  0
 15 16  1  0  0  0  0
 15 19  1  0  0  0  0
 16 17  2  0  0  0  0
 16 54  1  0  0  0  0
 17 18  1  0  0  0  0
 19 20  2  0  0  0  0
 19 21  1  0  0  0  0
 21 22  1  0  0  0  0
 21 55  1  0  0  0  0
 22 23  1  0  0  0  0
 22 30  1  0  0  0  0
 22 56  1  0  0  0  0
 23 24  1  0  0  0  0
 23 57  1  0  0  0  0
 23 58  1  0  0  0  0
 24 25  1  0  0  0  0
 24 29  2  0  0  0  0
 25 26  2  0  0  0  0
 25 59  1  0  0  0  0
 26 27  1  0  0  0  0
 26 60  1  0  0  0  0
 27 28  2  0  0  0  0
 27 61  1  0  0  0  0
 28 29  1  0  0  0  0
 28 62  1  0  0  0  0
 29 63  1  0  0  0  0
 30 31  1  0  0  0  0
 30 32  1  0  0  0  0
 30 64  1  0  0  0  0
 31 65  1  0  0  0  0
 32 33  1  0  0  0  0
 32 66  1  0  0  0  0
 32 67  1  0  0  0  0
 33 34  1  0  0  0  0
 33 68  1  0  0  0  0
 33 69  1  0  0  0  0
 34 35  1  0  0  0  0
 34 39  1  0  0  0  0
 34 70  1  0  0  0  0
 35 36  1  0  0  0  0
 35 71  1  0  0  0  0
 35 72  1  0  0  0  0
 36 37  1  0  0  0  0
 36 73  1  0  0  0  0
 36 74  1  0  0  0  0
 37 38  1  0  0  0  0
 37 75  1  0  0  0  0
 37 76  1  0  0  0  0
 38 39  1  0  0  0  0
 38 77  1  0  0  0  0
 38 78  1  0  0  0  0
 39 79  1  0  0  0  0
 39 80  1  0  0  0  0
M  CHG  1  33   1
M  END
>  <PARENT_CMPD_ID>
CHEMBL561961

>  <STANDARD_TYPE>
IC50

>  <RELATION>
=

>  <STANDARD_VALUE>
9

>  <STANDARD_UNITS>
nM

>  <COMPOUND_KEY>
26

>  <PUBMED_ID>
19477642

>  <JOURNAL>
Bioorg. Med. Chem. Lett.

>  <YEAR>
2009

>  <VOLUME>
19

>  <FIRST_PAGE>
3669

>  <Company>
GSK

>  <idx>
384

>  <Model>
Valid

>  <target>
8.0457573

>  <des_pred_mlr>
7.0852599

>  <RF_Canvas>
7.7270784

>  <DNN_Canvas>
7.5918312

>  <pred_CoMFA>
7.4133

>  <pred_COMSIA>
7.2270999

>  <pred_abm5>
6.8410563

>  <pred_ff8>
7.318265

>  <pred_gau6>
6.6629157

>  <CID>
BACE_384

>  <active>
1

>  <des_class_bayes>
1

>  <maacs_class_bayes>
1

>  <radial_class_bayes>
1

>  <dend_class_bayes>
1

>  <molprint_class_bayes>
1

>  <RF_canvas>
1

>  <DNN_canvas>
1

$$$$
CHEMBL595267
  MOE2015           3D

 86 90  0  0  1  0  0  0  0  0999 V2000
   24.2590   11.5800   23.0460 N   0  0  0  0  0  0  0  0  0  0  0  0
   23.0930   10.7880   22.6490 C   0  0  3  0  0  0  0  0  0  0  0  0
   23.4820    9.7460   21.5750 C   0  0  0  0  0  0  0  0  0  0  0  0
   24.2170   10.3570   20.4090 C   0  0  0  0  0  0  0  0  0  0  0  0
   25.6130   10.2700   20.3420 C   0  0  0  0  0  0  0  0  0  0  0  0
   26.3270   10.9280   19.3450 C   0  0  0  0  0  0  0  0  0  0  0  0
   25.6210   11.6430   18.3810 C   0  0  0  0  0  0  0  0  0  0  0  0
   24.2340   11.7070   18.4150 C   0  0  0  0  0  0  0  0  0  0  0  0
   23.5340   11.0730   19.4310 C   0  0  0  0  0  0  0  0  0  0  0  0
   27.6830   10.9980   19.2280 O   0  0  0  0  0  0  0  0  0  0  0  0
   28.5090   10.1830   20.0530 C   0  0  0  0  0  0  0  0  0  0  0  0
   29.8350   10.9100   20.2670 C   0  0  0  0  0  0  0  0  0  0  0  0
   29.6710   12.2200   21.0320 C   0  0  0  0  0  0  0  0  0  0  0  0
   29.4310   12.0230   22.5230 C   0  0  0  0  0  0  0  0  0  0  0  0
   29.2020   13.2840   23.1510 O   0  0  0  0  0  0  0  0  0  0  0  0
   27.9350   13.7400   23.3600 C   0  0  0  0  0  0  0  0  0  0  0  0
   26.7700   13.0560   23.0600 C   0  0  0  0  0  0  0  0  0  0  0  0
   25.5440   13.6460   23.3590 C   0  0  0  0  0  0  0  0  0  0  0  0
   25.5190   14.9280   23.8930 C   0  0  0  0  0  0  0  0  0  0  0  0
   26.7210   15.5710   24.1370 C   0  0  0  0  0  0  0  0  0  0  0  0
   27.9160   14.9770   23.9000 N   0  0  0  0  0  0  0  0  0  0  0  0
   26.7300   16.9810   24.6740 C   0  0  0  0  0  0  0  0  0  0  0  0
   26.5370   16.9790   26.0870 O   0  0  0  0  0  0  0  0  0  0  0  0
   27.6830   17.4460   26.7810 C   0  0  0  0  0  0  0  0  0  0  0  0
   24.2480   12.9630   23.0740 C   0  0  0  0  0  0  0  0  0  0  0  0
   23.2250   13.6150   22.8970 O   0  0  0  0  0  0  0  0  0  0  0  0
   22.4590   10.1090   23.8850 C   0  0  3  0  0  0  0  0  0  0  0  0
   21.2930    9.3410   23.5510 O   0  0  0  0  0  0  0  0  0  0  0  0
   22.0190   11.1530   24.9150 C   0  0  0  0  0  0  0  0  0  0  0  0
   21.3010   10.4480   26.0240 N   0  3  0  0  0  0  0  0  0  0  0  0
   20.4020   11.3060   26.8350 C   0  0  0  0  0  0  0  0  0  0  0  0
   20.1700   10.8190   28.2470 C   0  0  0  0  0  0  0  0  0  0  0  0
   21.0490   12.0000   28.0080 C   0  0  0  0  0  0  0  0  0  0  0  0
   19.2220   11.9270   26.1130 C   0  0  0  0  0  0  0  0  0  0  0  0
   18.2070   11.1210   25.5760 C   0  0  0  0  0  0  0  0  0  0  0  0
   17.1110   11.6510   24.8930 C   0  0  0  0  0  0  0  0  0  0  0  0
   17.0330   13.0340   24.7440 C   0  0  0  0  0  0  0  0  0  0  0  0
   18.0200   13.8570   25.2600 C   0  0  0  0  0  0  0  0  0  0  0  0
   19.1040   13.3080   25.9280 C   0  0  0  0  0  0  0  0  0  0  0  0
   16.0390   10.7800   24.2800 C   0  0  0  0  0  0  0  0  0  0  0  0
   16.4630   10.3260   22.8910 C   0  0  0  0  0  0  0  0  0  0  0  0
   15.6550    9.5790   25.1370 C   0  0  0  0  0  0  0  0  0  0  0  0
   25.1030   11.0790   23.2980 H   0  0  0  0  0  0  0  0  0  0  0  0
   22.3490   11.4590   22.1990 H   0  0  0  0  0  0  0  0  0  0  0  0
   22.5870    9.2340   21.2000 H   0  0  0  0  0  0  0  0  0  0  0  0
   24.1060    8.9640   22.0270 H   0  0  0  0  0  0  0  0  0  0  0  0
   26.1170    9.6990   21.1130 H   0  0  0  0  0  0  0  0  0  0  0  0
   26.1630   12.1620   17.5930 H   0  0  0  0  0  0  0  0  0  0  0  0
   23.6980   12.2690   17.6540 H   0  0  0  0  0  0  0  0  0  0  0  0
   22.4500   11.1550   19.4590 H   0  0  0  0  0  0  0  0  0  0  0  0
   28.6840    9.2350   19.5340 H   0  0  0  0  0  0  0  0  0  0  0  0
   28.0780    9.9650   21.0320 H   0  0  0  0  0  0  0  0  0  0  0  0
   30.2670   11.1430   19.2860 H   0  0  0  0  0  0  0  0  0  0  0  0
   30.5410   10.2530   20.7880 H   0  0  0  0  0  0  0  0  0  0  0  0
   28.8690   12.8290   20.5960 H   0  0  0  0  0  0  0  0  0  0  0  0
   30.5820   12.8190   20.9100 H   0  0  0  0  0  0  0  0  0  0  0  0
   30.3480   11.6210   22.9700 H   0  0  0  0  0  0  0  0  0  0  0  0
   28.6570   11.2870   22.7540 H   0  0  0  0  0  0  0  0  0  0  0  0
   26.8000   12.0970   22.5650 H   0  0  0  0  0  0  0  0  0  0  0  0
   24.5760   15.4240   24.1080 H   0  0  0  0  0  0  0  0  0  0  0  0
   25.9090   17.5500   24.2220 H   0  0  0  0  0  0  0  0  0  0  0  0
   27.6610   17.4860   24.3840 H   0  0  0  0  0  0  0  0  0  0  0  0
   27.4780   17.4020   27.8540 H   0  0  0  0  0  0  0  0  0  0  0  0
   27.8980   18.4840   26.5110 H   0  0  0  0  0  0  0  0  0  0  0  0
   28.5490   16.8110   26.5660 H   0  0  0  0  0  0  0  0  0  0  0  0
   23.1770    9.4210   24.3480 H   0  0  0  0  0  0  0  0  0  0  0  0
   20.8100    9.7880   22.8300 H   0  0  0  0  0  0  0  0  0  0  0  0
   21.3160   11.8560   24.4570 H   0  0  0  0  0  0  0  0  0  0  0  0
   22.8540   11.6960   25.3660 H   0  0  0  0  0  0  0  0  0  0  0  0
   21.9690    9.9520   26.6250 H   0  0  0  0  0  0  0  0  0  0  0  0
   20.7390    9.7130   25.5620 H   0  0  0  0  0  0  0  0  0  0  0  0
   20.6350    9.8990   28.5830 H   0  0  0  0  0  0  0  0  0  0  0  0
   19.2050   10.9990   28.7100 H   0  0  0  0  0  0  0  0  0  0  0  0
   20.6760   12.9630   28.3410 H   0  0  0  0  0  0  0  0  0  0  0  0
   22.1140   11.8840   28.1710 H   0  0  0  0  0  0  0  0  0  0  0  0
   18.2840   10.0420   25.6970 H   0  0  0  0  0  0  0  0  0  0  0  0
   16.1970   13.4840   24.2120 H   0  0  0  0  0  0  0  0  0  0  0  0
   17.9490   14.9350   25.1310 H   0  0  0  0  0  0  0  0  0  0  0  0
   19.8710   13.9820   26.3050 H   0  0  0  0  0  0  0  0  0  0  0  0
   15.1280   11.3850   24.1740 H   0  0  0  0  0  0  0  0  0  0  0  0
   17.3680    9.7080   22.9250 H   0  0  0  0  0  0  0  0  0  0  0  0
   16.6750   11.1830   22.2400 H   0  0  0  0  0  0  0  0  0  0  0  0
   15.6720    9.7370   22.4140 H   0  0  0  0  0  0  0  0  0  0  0  0
   16.4570    8.8360   25.1990 H   0  0  0  0  0  0  0  0  0  0  0  0
   14.7800    9.0730   24.7140 H   0  0  0  0  0  0  0  0  0  0  0  0
   15.3980    9.8870   26.1570 H   0  0  0  0  0  0  0  0  0  0  0  0
  1  2  1  0  0  0  0
  1 25  1  0  0  0  0
  1 43  1  0  0  0  0
  2  3  1  0  0  0  0
  2 27  1  0  0  0  0
  2 44  1  0  0  0  0
  3  4  1  0  0  0  0
  3 45  1  0  0  0  0
  3 46  1  0  0  0  0
  4  5  1  0  0  0  0
  4  9  2  0  0  0  0
  5  6  2  0  0  0  0
  5 47  1  0  0  0  0
  6  7  1  0  0  0  0
  6 10  1  0  0  0  0
  7  8  2  0  0  0  0
  7 48  1  0  0  0  0
  8  9  1  0  0  0  0
  8 49  1  0  0  0  0
  9 50  1  0  0  0  0
 10 11  1  0  0  0  0
 11 12  1  0  0  0  0
 11 51  1  0  0  0  0
 11 52  1  0  0  0  0
 12 13  1  0  0  0  0
 12 53  1  0  0  0  0
 12 54  1  0  0  0  0
 13 14  1  0  0  0  0
 13 55  1  0  0  0  0
 13 56  1  0  0  0  0
 14 15  1  0  0  0  0
 14 57  1  0  0  0  0
 14 58  1  0  0  0  0
 15 16  1  0  0  0  0
 16 17  1  0  0  0  0
 16 21  2  0  0  0  0
 17 18  2  0  0  0  0
 17 59  1  0  0  0  0
 18 19  1  0  0  0  0
 18 25  1  0  0  0  0
 19 20  2  0  0  0  0
 19 60  1  0  0  0  0
 20 21  1  0  0  0  0
 20 22  1  0  0  0  0
 22 23  1  0  0  0  0
 22 61  1  0  0  0  0
 22 62  1  0  0  0  0
 23 24  1  0  0  0  0
 24 63  1  0  0  0  0
 24 64  1  0  0  0  0
 24 65  1  0  0  0  0
 25 26  2  0  0  0  0
 27 28  1  0  0  0  0
 27 29  1  0  0  0  0
 27 66  1  0  0  0  0
 28 67  1  0  0  0  0
 29 30  1  0  0  0  0
 29 68  1  0  0  0  0
 29 69  1  0  0  0  0
 30 31  1  0  0  0  0
 30 70  1  0  0  0  0
 30 71  1  0  0  0  0
 31 32  1  0  0  0  0
 31 33  1  0  0  0  0
 31 34  1  0  0  0  0
 32 33  1  0  0  0  0
 32 72  1  0  0  0  0
 32 73  1  0  0  0  0
 33 74  1  0  0  0  0
 33 75  1  0  0  0  0
 34 35  1  0  0  0  0
 34 39  2  0  0  0  0
 35 36  2  0  0  0  0
 35 76  1  0  0  0  0
 36 37  1  0  0  0  0
 36 40  1  0  0  0  0
 37 38  2  0  0  0  0
 37 77  1  0  0  0  0
 38 39  1  0  0  0  0
 38 78  1  0  0  0  0
 39 79  1  0  0  0  0
 40 41  1  0  0  0  0
 40 42  1  0  0  0  0
 40 80  1  0  0  0  0
 41 81  1  0  0  0  0
 41 82  1  0  0  0  0
 41 83  1  0  0  0  0
 42 84  1  0  0  0  0
 42 85  1  0  0  0  0
 42 86  1  0  0  0  0
M  CHG  1  30   1
M  END
>  <PARENT_CMPD_ID>
CHEMBL595267

>  <STANDARD_TYPE>
IC50

>  <RELATION>
=

>  <STANDARD_VALUE>
9

>  <STANDARD_UNITS>
nM

>  <COMPOUND_KEY>
21

>  <PUBMED_ID>
19963375

>  <JOURNAL>
Bioorg. Med. Chem. Lett.

>  <YEAR>
2010

>  <VOLUME>
20

>  <FIRST_PAGE>
603

>  <Company>
Novartis

>  <idx>
385

>  <Model>
Valid

>  <target>
8.0457573

>  <des_pred_mlr>
7.44349

>  <RF_Canvas>
7.6224842

>  <DNN_Canvas>
7.3475041

>  <pred_CoMFA>
7.3906002

>  <pred_COMSIA>
8.0230999

>  <pred_abm5>
7.7253389

>  <pred_ff8>
7.2508059

>  <pred_gau6>
7.48739

>  <CID>
BACE_385

>  <active>
1

>  <des_class_bayes>
1

>  <maacs_class_bayes>
0

>  <radial_class_bayes>
1

>  <dend_class_bayes>
1

>  <molprint_class_bayes>
1

>  <RF_canvas>
1

>  <DNN_canvas>
1

$$$$
22468684_42
  MOE2015           3D

 88 93  0  0  1  0  0  0  0  0999 V2000
   20.7540   13.9040   29.6250 C   0  0  0  0  0  0  0  0  0  0  0  0
   20.1180   13.0250   30.6980 C   0  0  0  0  0  0  0  0  0  0  0  0
   19.1110   12.5520   29.6520 C   0  0  0  0  0  0  0  0  0  0  0  0
   20.0880   13.0170   28.5470 C   0  0  0  0  0  0  0  0  0  0  0  0
   21.0210   11.9730   27.9580 C   0  0  0  0  0  0  0  0  0  0  0  0
   19.4980   13.7800   27.4830 O   0  0  0  0  0  0  0  0  0  0  0  0
   18.8630   13.0720   26.4980 C   0  0  0  0  0  0  0  0  0  0  0  0
   17.9680   13.7880   25.8000 N   0  0  0  0  0  0  0  0  0  0  0  0
   17.3280   13.1500   24.8060 C   0  0  0  0  0  0  0  0  0  0  0  0
   17.5150   11.8140   24.4870 C   0  0  0  0  0  0  0  0  0  0  0  0
   16.7190   11.1680   23.3940 C   0  0  0  0  0  0  0  0  0  0  0  0
   15.3880   10.5170   23.8210 C   0  0  0  0  0  0  0  0  0  0  0  0
   14.4850   11.4940   24.5740 C   0  0  0  0  0  0  0  0  0  0  0  0
   15.6280    9.2850   24.6930 C   0  0  0  0  0  0  0  0  0  0  0  0
   14.6530   10.0720   22.5520 C   0  0  0  0  0  0  0  0  0  0  0  0
   18.4520   11.1080   25.2320 C   0  0  0  0  0  0  0  0  0  0  0  0
   19.1720   11.7440   26.2440 C   0  0  0  0  0  0  0  0  0  0  0  0
   20.2240   11.0350   27.0440 C   0  0  3  0  0  0  0  0  0  0  0  0
   21.2020   10.2330   26.2160 N   0  3  0  0  0  0  0  0  0  0  0  0
   21.9320   10.9890   25.1370 C   0  0  0  0  0  0  0  0  0  0  0  0
   22.3650   10.0060   24.0540 C   0  0  3  0  0  0  0  0  0  0  0  0
   21.2180    9.2400   23.6660 O   0  0  0  0  0  0  0  0  0  0  0  0
   22.9940   10.7150   22.8350 C   0  0  3  0  0  0  0  0  0  0  0  0
   24.0160   11.6670   23.2480 N   0  0  0  0  0  0  0  0  0  0  0  0
   23.7710   13.0210   23.3260 C   0  0  0  0  0  0  0  0  0  0  0  0
   22.6710   13.5140   23.0990 O   0  0  0  0  0  0  0  0  0  0  0  0
   24.9720   13.8410   23.7970 C   0  0  2  0  0  0  0  0  0  0  0  0
   25.0050   15.2220   23.1580 C   0  0  0  0  0  0  0  0  0  0  0  0
   24.9270   16.0160   23.9090 H   0  0  0  0  0  0  0  0  0  0  0  0
   24.1890   15.3800   22.4450 H   0  0  0  0  0  0  0  0  0  0  0  0
   26.2050   13.2020   23.4520 O   0  0  0  0  0  0  0  0  0  0  0  0
   26.6630   13.8160   22.2460 C   0  0  0  0  0  0  0  0  0  0  0  0
   23.5260    9.6740   21.8290 C   0  0  0  0  0  0  0  0  0  0  0  0
   24.3470   10.2720   20.7250 C   0  0  0  0  0  0  0  0  0  0  0  0
   25.7350   10.3130   20.8630 C   0  0  0  0  0  0  0  0  0  0  0  0
   23.7630   10.8350   19.5990 C   0  0  0  0  0  0  0  0  0  0  0  0
   24.5590   11.4310   18.6300 C   0  0  0  0  0  0  0  0  0  0  0  0
   25.9400   11.4800   18.7880 C   0  0  0  0  0  0  0  0  0  0  0  0
   26.5490   10.9210   19.9100 C   0  0  0  0  0  0  0  0  0  0  0  0
   27.9970   11.0490   20.1060 C   0  0  0  0  0  0  0  0  0  0  0  0
   28.7200   12.0520   19.6520 N   0  0  0  0  0  0  0  0  0  0  0  0
   30.0320   11.9020   20.0390 C   0  0  0  0  0  0  0  0  0  0  0  0
   30.3100   10.7810   20.7820 C   0  0  0  0  0  0  0  0  0  0  0  0
   28.8880    9.8710   20.9960 S   0  0  0  0  0  0  0  0  0  0  0  0
   21.8480   13.9260   29.6330 H   0  0  0  0  0  0  0  0  0  0  0  0
   20.3910   14.9390   29.6340 H   0  0  0  0  0  0  0  0  0  0  0  0
   19.6960   13.5550   31.5560 H   0  0  0  0  0  0  0  0  0  0  0  0
   20.7780   12.2310   31.0640 H   0  0  0  0  0  0  0  0  0  0  0  0
   18.1660   13.1080   29.6710 H   0  0  0  0  0  0  0  0  0  0  0  0
   18.8800   11.4830   29.6880 H   0  0  0  0  0  0  0  0  0  0  0  0
   21.5260   11.3880   28.7380 H   0  0  0  0  0  0  0  0  0  0  0  0
   21.8110   12.4920   27.4010 H   0  0  0  0  0  0  0  0  0  0  0  0
   16.6160   13.7670   24.2620 H   0  0  0  0  0  0  0  0  0  0  0  0
   17.3540   10.4240   22.8920 H   0  0  0  0  0  0  0  0  0  0  0  0
   16.5240   11.9290   22.6240 H   0  0  0  0  0  0  0  0  0  0  0  0
   14.8990   11.7720   25.5490 H   0  0  0  0  0  0  0  0  0  0  0  0
   13.4990   11.0530   24.7660 H   0  0  0  0  0  0  0  0  0  0  0  0
   14.3230   12.4130   23.9980 H   0  0  0  0  0  0  0  0  0  0  0  0
   16.0660    9.5480   25.6620 H   0  0  0  0  0  0  0  0  0  0  0  0
   16.3020    8.5730   24.2020 H   0  0  0  0  0  0  0  0  0  0  0  0
   14.6900    8.7570   24.9010 H   0  0  0  0  0  0  0  0  0  0  0  0
   14.4320   10.9230   21.8990 H   0  0  0  0  0  0  0  0  0  0  0  0
   13.7010    9.5830   22.7890 H   0  0  0  0  0  0  0  0  0  0  0  0
   15.2530    9.3580   21.9750 H   0  0  0  0  0  0  0  0  0  0  0  0
   18.6140   10.0560   25.0090 H   0  0  0  0  0  0  0  0  0  0  0  0
   19.7130   10.2920   27.6690 H   0  0  0  0  0  0  0  0  0  0  0  0
   20.6950    9.4800   25.7190 H   0  0  0  0  0  0  0  0  0  0  0  0
   21.8720    9.7450   26.8240 H   0  0  0  0  0  0  0  0  0  0  0  0
   22.7790   11.4880   25.6140 H   0  0  0  0  0  0  0  0  0  0  0  0
   21.2460   11.7300   24.7180 H   0  0  0  0  0  0  0  0  0  0  0  0
   23.0870    9.3040   24.4900 H   0  0  0  0  0  0  0  0  0  0  0  0
   20.7990    9.6550   22.8880 H   0  0  0  0  0  0  0  0  0  0  0  0
   22.2040   11.2760   22.3180 H   0  0  0  0  0  0  0  0  0  0  0  0
   24.9670   11.3670   23.4650 H   0  0  0  0  0  0  0  0  0  0  0  0
   24.9150   13.9040   24.8890 H   0  0  0  0  0  0  0  0  0  0  0  0
   27.7320   13.6320   22.1150 H   0  0  0  0  0  0  0  0  0  0  0  0
   22.6910    9.1100   21.3920 H   0  0  0  0  0  0  0  0  0  0  0  0
   26.3400   15.2730   22.4460 C   0  0  0  0  0  0  0  0  0  0  0  0
   26.3150   15.8400   21.5120 H   0  0  0  0  0  0  0  0  0  0  0  0
   27.0850   15.7320   23.1060 H   0  0  0  0  0  0  0  0  0  0  0  0
   24.1340    8.9260   22.3570 H   0  0  0  0  0  0  0  0  0  0  0  0
   26.1750    9.8900   21.7640 H   0  0  0  0  0  0  0  0  0  0  0  0
   26.1140   13.3990   21.3970 H   0  0  0  0  0  0  0  0  0  0  0  0
   22.6830   10.8260   19.4710 H   0  0  0  0  0  0  0  0  0  0  0  0
   24.1000   11.8760   17.7510 H   0  0  0  0  0  0  0  0  0  0  0  0
   26.5430   11.9740   18.0280 H   0  0  0  0  0  0  0  0  0  0  0  0
   30.7560   12.6520   19.7500 H   0  0  0  0  0  0  0  0  0  0  0  0
   31.2600   10.4640   21.1890 H   0  0  0  0  0  0  0  0  0  0  0  0
  1  2  1  0  0  0  0
  1  4  1  0  0  0  0
  1 45  1  0  0  0  0
  1 46  1  0  0  0  0
  2  3  1  0  0  0  0
  2 47  1  0  0  0  0
  2 48  1  0  0  0  0
  3  4  1  0  0  0  0
  3 49  1  0  0  0  0
  3 50  1  0  0  0  0
  4  5  1  0  0  0  0
  4  6  1  0  0  0  0
  5 18  1  0  0  0  0
  5 51  1  0  0  0  0
  5 52  1  0  0  0  0
  6  7  1  0  0  0  0
  7  8  2  0  0  0  0
  7 17  1  0  0  0  0
  8  9  1  0  0  0  0
  9 10  2  0  0  0  0
  9 53  1  0  0  0  0
 10 11  1  0  0  0  0
 10 16  1  0  0  0  0
 11 12  1  0  0  0  0
 11 54  1  0  0  0  0
 11 55  1  0  0  0  0
 12 13  1  0  0  0  0
 12 14  1  0  0  0  0
 12 15  1  0  0  0  0
 13 56  1  0  0  0  0
 13 57  1  0  0  0  0
 13 58  1  0  0  0  0
 14 59  1  0  0  0  0
 14 60  1  0  0  0  0
 14 61  1  0  0  0  0
 15 62  1  0  0  0  0
 15 63  1  0  0  0  0
 15 64  1  0  0  0  0
 16 17  2  0  0  0  0
 16 65  1  0  0  0  0
 17 18  1  0  0  0  0
 18 19  1  0  0  0  0
 18 66  1  0  0  0  0
 19 20  1  0  0  0  0
 19 67  1  0  0  0  0
 19 68  1  0  0  0  0
 20 21  1  0  0  0  0
 20 69  1  0  0  0  0
 20 70  1  0  0  0  0
 21 22  1  0  0  0  0
 21 23  1  0  0  0  0
 21 71  1  0  0  0  0
 22 72  1  0  0  0  0
 23 24  1  0  0  0  0
 23 33  1  0  0  0  0
 23 73  1  0  0  0  0
 24 25  1  0  0  0  0
 24 74  1  0  0  0  0
 25 26  2  0  0  0  0
 25 27  1  0  0  0  0
 27 28  1  0  0  0  0
 27 31  1  0  0  0  0
 27 75  1  0  0  0  0
 28 29  1  0  0  0  0
 28 30  1  0  0  0  0
 28 78  1  0  0  0  0
 31 32  1  0  0  0  0
 32 76  1  0  0  0  0
 32 78  1  0  0  0  0
 32 83  1  0  0  0  0
 33 34  1  0  0  0  0
 33 77  1  0  0  0  0
 33 81  1  0  0  0  0
 34 35  2  0  0  0  0
 34 36  1  0  0  0  0
 35 39  1  0  0  0  0
 35 82  1  0  0  0  0
 36 37  2  0  0  0  0
 36 84  1  0  0  0  0
 37 38  1  0  0  0  0
 37 85  1  0  0  0  0
 38 39  2  0  0  0  0
 38 86  1  0  0  0  0
 39 40  1  0  0  0  0
 40 41  2  0  0  0  0
 40 44  1  0  0  0  0
 41 42  1  0  0  0  0
 42 43  2  0  0  0  0
 42 87  1  0  0  0  0
 43 44  1  0  0  0  0
 43 88  1  0  0  0  0
 78 79  1  0  0  0  0
 78 80  1  0  0  0  0
M  CHG  1  19   1
M  END
>  <PARENT_CMPD_ID>
22468684_42

>  <STANDARD_TYPE>
IC50

>  <RELATION>
=

>  <STANDARD_VALUE>
9.1999998

>  <STANDARD_UNITS>
nM

>  <COMPOUND_KEY>
42

>  <PUBMED_ID>
22468684

>  <JOURNAL>
J.Med.Chem.

>  <YEAR>
2012

>  <VOLUME>
55

>  <FIRST_PAGE>
9025

>  <Company>
Amgen

>  <idx>
386

>  <Model>
Valid

>  <target>
8.036212

>  <des_pred_mlr>
8.0673504

>  <RF_Canvas>
8.0068064

>  <DNN_Canvas>
8.1118994

>  <pred_CoMFA>
8.9379997

>  <pred_COMSIA>
8.6992998

>  <pred_abm5>
8.9597788

>  <pred_ff8>
8.3313351

>  <pred_gau6>
8.9009151

>  <CID>
BACE_386

>  <active>
1

>  <des_class_bayes>
1

>  <maacs_class_bayes>
1

>  <radial_class_bayes>
1

>  <dend_class_bayes>
1

>  <molprint_class_bayes>
1

>  <RF_canvas>
1

>  <DNN_canvas>
1

$$$$
22468684_12
  MOE2015           3D

 87 91  0  0  1  0  0  0  0  0999 V2000
   20.7540   13.9030   29.6250 C   0  0  0  0  0  0  0  0  0  0  0  0
   20.1170   13.0240   30.6970 C   0  0  0  0  0  0  0  0  0  0  0  0
   19.1110   12.5510   29.6520 C   0  0  0  0  0  0  0  0  0  0  0  0
   20.0880   13.0160   28.5470 C   0  0  0  0  0  0  0  0  0  0  0  0
   21.0210   11.9720   27.9570 C   0  0  0  0  0  0  0  0  0  0  0  0
   19.4970   13.7800   27.4830 O   0  0  0  0  0  0  0  0  0  0  0  0
   18.8620   13.0730   26.4990 C   0  0  0  0  0  0  0  0  0  0  0  0
   17.9680   13.7880   25.8000 N   0  0  0  0  0  0  0  0  0  0  0  0
   17.3280   13.1510   24.8060 C   0  0  0  0  0  0  0  0  0  0  0  0
   17.5140   11.8150   24.4870 C   0  0  0  0  0  0  0  0  0  0  0  0
   16.7180   11.1690   23.3940 C   0  0  0  0  0  0  0  0  0  0  0  0
   15.3870   10.5170   23.8210 C   0  0  0  0  0  0  0  0  0  0  0  0
   14.4840   11.4930   24.5760 C   0  0  0  0  0  0  0  0  0  0  0  0
   15.6290    9.2840   24.6910 C   0  0  0  0  0  0  0  0  0  0  0  0
   14.6520   10.0740   22.5520 C   0  0  0  0  0  0  0  0  0  0  0  0
   18.4510   11.1090   25.2320 C   0  0  0  0  0  0  0  0  0  0  0  0
   19.1700   11.7440   26.2440 C   0  0  0  0  0  0  0  0  0  0  0  0
   20.2240   11.0360   27.0420 C   0  0  3  0  0  0  0  0  0  0  0  0
   21.2020   10.2370   26.2110 N   0  3  0  0  0  0  0  0  0  0  0  0
   21.9270   10.9980   25.1310 C   0  0  0  0  0  0  0  0  0  0  0  0
   22.3600   10.0180   24.0450 C   0  0  3  0  0  0  0  0  0  0  0  0
   21.2150    9.2470   23.6620 O   0  0  0  0  0  0  0  0  0  0  0  0
   22.9760   10.7390   22.8250 C   0  0  3  0  0  0  0  0  0  0  0  0
   24.0020   11.6890   23.2390 N   0  0  0  0  0  0  0  0  0  0  0  0
   23.7570   13.0430   23.3250 C   0  0  0  0  0  0  0  0  0  0  0  0
   22.6630   13.5440   23.0920 O   0  0  0  0  0  0  0  0  0  0  0  0
   24.9340   13.8530   23.8430 C   0  0  0  0  0  0  0  0  0  0  0  0
   26.1780   13.3100   23.4350 O   0  0  0  0  0  0  0  0  0  0  0  0
   26.6020   13.8310   22.1840 C   0  0  0  0  0  0  0  0  0  0  0  0
   23.4950    9.7060   21.8050 C   0  0  0  0  0  0  0  0  0  0  0  0
   24.3250   10.3040   20.7080 C   0  0  0  0  0  0  0  0  0  0  0  0
   25.7110   10.3370   20.8570 C   0  0  0  0  0  0  0  0  0  0  0  0
   23.7580   10.8660   19.5740 C   0  0  0  0  0  0  0  0  0  0  0  0
   24.5710   11.4460   18.6110 C   0  0  0  0  0  0  0  0  0  0  0  0
   25.9530   11.4760   18.7790 C   0  0  0  0  0  0  0  0  0  0  0  0
   26.5540   10.9180   19.9080 C   0  0  0  0  0  0  0  0  0  0  0  0
   21.8480   13.9250   29.6330 H   0  0  0  0  0  0  0  0  0  0  0  0
   20.3900   14.9380   29.6350 H   0  0  0  0  0  0  0  0  0  0  0  0
   19.6950   13.5540   31.5560 H   0  0  0  0  0  0  0  0  0  0  0  0
   20.7770   12.2300   31.0640 H   0  0  0  0  0  0  0  0  0  0  0  0
   18.1660   13.1070   29.6710 H   0  0  0  0  0  0  0  0  0  0  0  0
   18.8810   11.4820   29.6870 H   0  0  0  0  0  0  0  0  0  0  0  0
   21.5250   11.3880   28.7370 H   0  0  0  0  0  0  0  0  0  0  0  0
   21.8110   12.4920   27.4010 H   0  0  0  0  0  0  0  0  0  0  0  0
   16.6170   13.7680   24.2610 H   0  0  0  0  0  0  0  0  0  0  0  0
   17.3530   10.4260   22.8910 H   0  0  0  0  0  0  0  0  0  0  0  0
   16.5230   11.9300   22.6240 H   0  0  0  0  0  0  0  0  0  0  0  0
   14.9000   11.7690   25.5510 H   0  0  0  0  0  0  0  0  0  0  0  0
   13.4990   11.0520   24.7680 H   0  0  0  0  0  0  0  0  0  0  0  0
   14.3230   12.4130   24.0020 H   0  0  0  0  0  0  0  0  0  0  0  0
   16.0670    9.5450   25.6600 H   0  0  0  0  0  0  0  0  0  0  0  0
   16.3020    8.5730   24.1990 H   0  0  0  0  0  0  0  0  0  0  0  0
   14.6910    8.7550   24.8990 H   0  0  0  0  0  0  0  0  0  0  0  0
   14.4300   10.9260   21.9000 H   0  0  0  0  0  0  0  0  0  0  0  0
   13.7000    9.5850   22.7880 H   0  0  0  0  0  0  0  0  0  0  0  0
   15.2520    9.3620   21.9730 H   0  0  0  0  0  0  0  0  0  0  0  0
   18.6120   10.0570   25.0090 H   0  0  0  0  0  0  0  0  0  0  0  0
   19.7150   10.2900   27.6670 H   0  0  0  0  0  0  0  0  0  0  0  0
   20.6950    9.4840   25.7140 H   0  0  0  0  0  0  0  0  0  0  0  0
   21.8750    9.7500   26.8170 H   0  0  0  0  0  0  0  0  0  0  0  0
   22.7740   11.4970   25.6080 H   0  0  0  0  0  0  0  0  0  0  0  0
   21.2390   11.7380   24.7160 H   0  0  0  0  0  0  0  0  0  0  0  0
   23.0890    9.3200   24.4740 H   0  0  0  0  0  0  0  0  0  0  0  0
   20.8040    9.6470   22.8720 H   0  0  0  0  0  0  0  0  0  0  0  0
   22.1810   11.3040   22.3200 H   0  0  0  0  0  0  0  0  0  0  0  0
   24.9510   11.3830   23.4520 H   0  0  0  0  0  0  0  0  0  0  0  0
   24.8290   14.9000   23.5390 H   0  0  0  0  0  0  0  0  0  0  0  0
   24.8960   13.8100   24.9370 H   0  0  0  0  0  0  0  0  0  0  0  0
   27.5620   13.3750   21.9340 H   0  0  0  0  0  0  0  0  0  0  0  0
   26.7480   14.9140   22.2500 H   0  0  0  0  0  0  0  0  0  0  0  0
   25.8770   13.5990   21.3990 H   0  0  0  0  0  0  0  0  0  0  0  0
   22.6530    9.1580   21.3620 H   0  0  0  0  0  0  0  0  0  0  0  0
   24.0940    8.9430   22.3230 H   0  0  0  0  0  0  0  0  0  0  0  0
   26.1360    9.9190   21.7680 H   0  0  0  0  0  0  0  0  0  0  0  0
   22.6800   10.8670   19.4340 H   0  0  0  0  0  0  0  0  0  0  0  0
   24.1270   11.8910   17.7240 H   0  0  0  0  0  0  0  0  0  0  0  0
   26.5680   11.9480   18.0140 H   0  0  0  0  0  0  0  0  0  0  0  0
   30.7030   11.2150   20.6120 C   0  0  0  0  0  0  0  0  0  0  0  0
   31.7650   11.3500   20.7840 H   0  0  0  0  0  0  0  0  0  0  0  0
   30.0370   10.1040   21.0840 C   0  0  0  0  0  0  0  0  0  0  0  0
   30.5720    9.3390   21.6400 H   0  0  0  0  0  0  0  0  0  0  0  0
   28.6810    9.9690   20.8370 C   0  0  0  0  0  0  0  0  0  0  0  0
   28.1700    9.0820   21.1980 H   0  0  0  0  0  0  0  0  0  0  0  0
   28.0080   10.9630   20.1270 C   0  0  0  0  0  0  0  0  0  0  0  0
   28.6590   12.0490   19.6470 N   0  0  0  0  0  0  0  0  0  0  0  0
   29.9780   12.1480   19.9010 C   0  0  0  0  0  0  0  0  0  0  0  0
   30.4560   13.0370   19.5020 H   0  0  0  0  0  0  0  0  0  0  0  0
  1  2  1  0  0  0  0
  1  4  1  0  0  0  0
  1 37  1  0  0  0  0
  1 38  1  0  0  0  0
  2  3  1  0  0  0  0
  2 39  1  0  0  0  0
  2 40  1  0  0  0  0
  3  4  1  0  0  0  0
  3 41  1  0  0  0  0
  3 42  1  0  0  0  0
  4  5  1  0  0  0  0
  4  6  1  0  0  0  0
  5 18  1  0  0  0  0
  5 43  1  0  0  0  0
  5 44  1  0  0  0  0
  6  7  1  0  0  0  0
  7  8  1  0  0  0  0
  7 17  2  0  0  0  0
  8  9  2  0  0  0  0
  9 10  1  0  0  0  0
  9 45  1  0  0  0  0
 10 11  1  0  0  0  0
 10 16  2  0  0  0  0
 11 12  1  0  0  0  0
 11 46  1  0  0  0  0
 11 47  1  0  0  0  0
 12 13  1  0  0  0  0
 12 14  1  0  0  0  0
 12 15  1  0  0  0  0
 13 48  1  0  0  0  0
 13 49  1  0  0  0  0
 13 50  1  0  0  0  0
 14 51  1  0  0  0  0
 14 52  1  0  0  0  0
 14 53  1  0  0  0  0
 15 54  1  0  0  0  0
 15 55  1  0  0  0  0
 15 56  1  0  0  0  0
 16 17  1  0  0  0  0
 16 57  1  0  0  0  0
 17 18  1  0  0  0  0
 18 19  1  0  0  0  0
 18 58  1  0  0  0  0
 19 20  1  0  0  0  0
 19 59  1  0  0  0  0
 19 60  1  0  0  0  0
 20 21  1  0  0  0  0
 20 61  1  0  0  0  0
 20 62  1  0  0  0  0
 21 22  1  0  0  0  0
 21 23  1  0  0  0  0
 21 63  1  0  0  0  0
 22 64  1  0  0  0  0
 23 24  1  0  0  0  0
 23 30  1  0  0  0  0
 23 65  1  0  0  0  0
 24 25  1  0  0  0  0
 24 66  1  0  0  0  0
 25 26  2  0  0  0  0
 25 27  1  0  0  0  0
 27 28  1  0  0  0  0
 27 67  1  0  0  0  0
 27 68  1  0  0  0  0
 28 29  1  0  0  0  0
 29 69  1  0  0  0  0
 29 70  1  0  0  0  0
 29 71  1  0  0  0  0
 30 31  1  0  0  0  0
 30 72  1  0  0  0  0
 30 73  1  0  0  0  0
 31 32  1  0  0  0  0
 31 33  2  0  0  0  0
 32 36  2  0  0  0  0
 32 74  1  0  0  0  0
 33 34  1  0  0  0  0
 33 75  1  0  0  0  0
 34 35  2  0  0  0  0
 34 76  1  0  0  0  0
 35 36  1  0  0  0  0
 35 77  1  0  0  0  0
 36 84  1  0  0  0  0
 78 79  1  0  0  0  0
 78 80  1  0  0  0  0
 78 86  2  0  0  0  0
 80 81  1  0  0  0  0
 80 82  2  0  0  0  0
 82 83  1  0  0  0  0
 82 84  1  0  0  0  0
 84 85  2  0  0  0  0
 85 86  1  0  0  0  0
 86 87  1  0  0  0  0
M  CHG  1  19   1
M  END
>  <PARENT_CMPD_ID>
22468684_12

>  <STANDARD_TYPE>
IC50

>  <RELATION>
=

>  <STANDARD_VALUE>
9.3000002

>  <STANDARD_UNITS>
nM

>  <COMPOUND_KEY>
12

>  <PUBMED_ID>
22468684

>  <JOURNAL>
J.Med.Chem.

>  <YEAR>
2012

>  <VOLUME>
55

>  <FIRST_PAGE>
9025

>  <Company>
Amgen

>  <idx>
387

>  <Model>
Valid

>  <target>
8.031517

>  <des_pred_mlr>
7.7321701

>  <RF_Canvas>
8.0134268

>  <DNN_Canvas>
8.1749363

>  <pred_CoMFA>
9.0235004

>  <pred_COMSIA>
8.9521999

>  <pred_abm5>
9.1975403

>  <pred_ff8>
8.3039808

>  <pred_gau6>
9.0340252

>  <CID>
BACE_387

>  <active>
1

>  <des_class_bayes>
1

>  <maacs_class_bayes>
1

>  <radial_class_bayes>
0

>  <dend_class_bayes>
1

>  <molprint_class_bayes>
1

>  <RF_canvas>
1

>  <DNN_canvas>
1

$$$$
22468684_26
  MOE2015           3D

 84 88  0  0  1  0  0  0  0  0999 V2000
   20.7560   13.8990   29.6210 C   0  0  0  0  0  0  0  0  0  0  0  0
   20.1210   13.0190   30.6930 C   0  0  0  0  0  0  0  0  0  0  0  0
   19.1150   12.5440   29.6480 C   0  0  0  0  0  0  0  0  0  0  0  0
   20.0900   13.0140   28.5420 C   0  0  0  0  0  0  0  0  0  0  0  0
   21.0250   11.9730   27.9480 C   0  0  0  0  0  0  0  0  0  0  0  0
   19.4960   13.7790   27.4820 O   0  0  0  0  0  0  0  0  0  0  0  0
   18.8620   13.0730   26.4960 C   0  0  0  0  0  0  0  0  0  0  0  0
   17.9650   13.7890   25.8010 N   0  0  0  0  0  0  0  0  0  0  0  0
   17.3210   13.1530   24.8090 C   0  0  0  0  0  0  0  0  0  0  0  0
   17.5100   11.8180   24.4860 C   0  0  0  0  0  0  0  0  0  0  0  0
   16.7140   11.1730   23.3920 C   0  0  0  0  0  0  0  0  0  0  0  0
   15.3850   10.5170   23.8200 C   0  0  0  0  0  0  0  0  0  0  0  0
   14.4810   11.4910   24.5760 C   0  0  0  0  0  0  0  0  0  0  0  0
   15.6310    9.2840   24.6910 C   0  0  0  0  0  0  0  0  0  0  0  0
   14.6500   10.0710   22.5520 C   0  0  0  0  0  0  0  0  0  0  0  0
   18.4520   11.1120   25.2240 C   0  0  0  0  0  0  0  0  0  0  0  0
   19.1730   11.7470   26.2370 C   0  0  0  0  0  0  0  0  0  0  0  0
   20.2290   11.0370   27.0320 C   0  0  3  0  0  0  0  0  0  0  0  0
   21.2070   10.2400   26.1980 N   0  3  0  0  0  0  0  0  0  0  0  0
   21.9330   10.9990   25.1170 C   0  0  0  0  0  0  0  0  0  0  0  0
   22.3780   10.0170   24.0360 C   0  0  3  0  0  0  0  0  0  0  0  0
   21.2310    9.2480   23.6490 O   0  0  0  0  0  0  0  0  0  0  0  0
   23.0210   10.7250   22.8190 C   0  0  3  0  0  0  0  0  0  0  0  0
   24.0280   11.6880   23.2450 N   0  0  0  0  0  0  0  0  0  0  0  0
   23.7710   13.0410   23.3290 C   0  0  0  0  0  0  0  0  0  0  0  0
   22.6760   13.5360   23.0910 O   0  0  0  0  0  0  0  0  0  0  0  0
   24.9420   13.8570   23.8480 C   0  0  0  0  0  0  0  0  0  0  0  0
   26.1870   13.3210   23.4320 O   0  0  0  0  0  0  0  0  0  0  0  0
   26.6070   13.8560   22.1850 C   0  0  0  0  0  0  0  0  0  0  0  0
   23.5950    9.6800   21.8390 C   0  0  0  0  0  0  0  0  0  0  0  0
   24.4410   10.2730   20.7510 C   0  0  0  0  0  0  0  0  0  0  0  0
   25.8240   10.3180   20.8960 C   0  0  0  0  0  0  0  0  0  0  0  0
   23.8830   10.8340   19.6150 C   0  0  0  0  0  0  0  0  0  0  0  0
   24.6620   11.4270   18.6400 C   0  0  0  0  0  0  0  0  0  0  0  0
   26.0370   11.4770   18.8050 C   0  0  0  0  0  0  0  0  0  0  0  0
   26.6380   10.9220   19.9360 C   0  0  0  0  0  0  0  0  0  0  0  0
   28.0840   11.0500   20.1260 C   0  0  0  0  0  0  0  0  0  0  0  0
   28.7970   12.0540   19.6620 N   0  0  0  0  0  0  0  0  0  0  0  0
   30.1110   11.9090   20.0400 C   0  0  0  0  0  0  0  0  0  0  0  0
   30.3980   10.7920   20.7860 C   0  0  0  0  0  0  0  0  0  0  0  0
   28.9800    9.8800   21.0140 S   0  0  0  0  0  0  0  0  0  0  0  0
   21.8500   13.9220   29.6290 H   0  0  0  0  0  0  0  0  0  0  0  0
   20.3920   14.9340   29.6330 H   0  0  0  0  0  0  0  0  0  0  0  0
   19.6980   13.5470   31.5520 H   0  0  0  0  0  0  0  0  0  0  0  0
   20.7820   12.2250   31.0590 H   0  0  0  0  0  0  0  0  0  0  0  0
   18.1690   13.0980   29.6680 H   0  0  0  0  0  0  0  0  0  0  0  0
   18.8880   11.4750   29.6810 H   0  0  0  0  0  0  0  0  0  0  0  0
   21.5310   11.3870   28.7260 H   0  0  0  0  0  0  0  0  0  0  0  0
   21.8130   12.4950   27.3920 H   0  0  0  0  0  0  0  0  0  0  0  0
   16.6050   13.7680   24.2700 H   0  0  0  0  0  0  0  0  0  0  0  0
   17.3490   10.4320   22.8860 H   0  0  0  0  0  0  0  0  0  0  0  0
   16.5150   11.9350   22.6240 H   0  0  0  0  0  0  0  0  0  0  0  0
   14.8960   11.7680   25.5510 H   0  0  0  0  0  0  0  0  0  0  0  0
   13.4970   11.0470   24.7690 H   0  0  0  0  0  0  0  0  0  0  0  0
   14.3160   12.4100   24.0020 H   0  0  0  0  0  0  0  0  0  0  0  0
   16.0690    9.5470   25.6590 H   0  0  0  0  0  0  0  0  0  0  0  0
   16.3060    8.5750   24.1980 H   0  0  0  0  0  0  0  0  0  0  0  0
   14.6940    8.7540   24.8990 H   0  0  0  0  0  0  0  0  0  0  0  0
   14.4260   10.9230   21.9000 H   0  0  0  0  0  0  0  0  0  0  0  0
   13.6990    9.5800   22.7900 H   0  0  0  0  0  0  0  0  0  0  0  0
   15.2510    9.3600   21.9730 H   0  0  0  0  0  0  0  0  0  0  0  0
   18.6170   10.0620   24.9970 H   0  0  0  0  0  0  0  0  0  0  0  0
   19.7210   10.2900   27.6550 H   0  0  0  0  0  0  0  0  0  0  0  0
   20.7000    9.4890   25.6970 H   0  0  0  0  0  0  0  0  0  0  0  0
   21.8780    9.7500   26.8030 H   0  0  0  0  0  0  0  0  0  0  0  0
   22.7760   11.5050   25.5960 H   0  0  0  0  0  0  0  0  0  0  0  0
   21.2430   11.7340   24.6960 H   0  0  0  0  0  0  0  0  0  0  0  0
   23.0970    9.3170   24.4800 H   0  0  0  0  0  0  0  0  0  0  0  0
   20.8650    9.6070   22.8180 H   0  0  0  0  0  0  0  0  0  0  0  0
   22.2360   11.2740   22.2820 H   0  0  0  0  0  0  0  0  0  0  0  0
   24.9770   11.3930   23.4720 H   0  0  0  0  0  0  0  0  0  0  0  0
   24.8300   14.9050   23.5490 H   0  0  0  0  0  0  0  0  0  0  0  0
   24.9080   13.8090   24.9420 H   0  0  0  0  0  0  0  0  0  0  0  0
   27.5680   13.4060   21.9270 H   0  0  0  0  0  0  0  0  0  0  0  0
   26.7480   14.9390   22.2610 H   0  0  0  0  0  0  0  0  0  0  0  0
   25.8810   13.6280   21.4000 H   0  0  0  0  0  0  0  0  0  0  0  0
   22.7810    9.0980   21.3890 H   0  0  0  0  0  0  0  0  0  0  0  0
   24.2000    8.9490   22.3930 H   0  0  0  0  0  0  0  0  0  0  0  0
   26.2640    9.9010   21.8000 H   0  0  0  0  0  0  0  0  0  0  0  0
   22.5590   10.8130   19.4580 F   0  0  0  0  0  0  0  0  0  0  0  0
   24.1920   11.8620   17.7630 H   0  0  0  0  0  0  0  0  0  0  0  0
   26.6460   11.9650   18.0450 H   0  0  0  0  0  0  0  0  0  0  0  0
   30.8320   12.6600   19.7420 H   0  0  0  0  0  0  0  0  0  0  0  0
   31.3510   10.4780   21.1870 H   0  0  0  0  0  0  0  0  0  0  0  0
  1  2  1  0  0  0  0
  1  4  1  0  0  0  0
  1 42  1  0  0  0  0
  1 43  1  0  0  0  0
  2  3  1  0  0  0  0
  2 44  1  0  0  0  0
  2 45  1  0  0  0  0
  3  4  1  0  0  0  0
  3 46  1  0  0  0  0
  3 47  1  0  0  0  0
  4  5  1  0  0  0  0
  4  6  1  0  0  0  0
  5 18  1  0  0  0  0
  5 48  1  0  0  0  0
  5 49  1  0  0  0  0
  6  7  1  0  0  0  0
  7  8  1  0  0  0  0
  7 17  2  0  0  0  0
  8  9  2  0  0  0  0
  9 10  1  0  0  0  0
  9 50  1  0  0  0  0
 10 11  1  0  0  0  0
 10 16  2  0  0  0  0
 11 12  1  0  0  0  0
 11 51  1  0  0  0  0
 11 52  1  0  0  0  0
 12 13  1  0  0  0  0
 12 14  1  0  0  0  0
 12 15  1  0  0  0  0
 13 53  1  0  0  0  0
 13 54  1  0  0  0  0
 13 55  1  0  0  0  0
 14 56  1  0  0  0  0
 14 57  1  0  0  0  0
 14 58  1  0  0  0  0
 15 59  1  0  0  0  0
 15 60  1  0  0  0  0
 15 61  1  0  0  0  0
 16 17  1  0  0  0  0
 16 62  1  0  0  0  0
 17 18  1  0  0  0  0
 18 19  1  0  0  0  0
 18 63  1  0  0  0  0
 19 20  1  0  0  0  0
 19 64  1  0  0  0  0
 19 65  1  0  0  0  0
 20 21  1  0  0  0  0
 20 66  1  0  0  0  0
 20 67  1  0  0  0  0
 21 22  1  0  0  0  0
 21 23  1  0  0  0  0
 21 68  1  0  0  0  0
 22 69  1  0  0  0  0
 23 24  1  0  0  0  0
 23 30  1  0  0  0  0
 23 70  1  0  0  0  0
 24 25  1  0  0  0  0
 24 71  1  0  0  0  0
 25 26  2  0  0  0  0
 25 27  1  0  0  0  0
 27 28  1  0  0  0  0
 27 72  1  0  0  0  0
 27 73  1  0  0  0  0
 28 29  1  0  0  0  0
 29 74  1  0  0  0  0
 29 75  1  0  0  0  0
 29 76  1  0  0  0  0
 30 31  1  0  0  0  0
 30 77  1  0  0  0  0
 30 78  1  0  0  0  0
 31 32  1  0  0  0  0
 31 33  2  0  0  0  0
 32 36  2  0  0  0  0
 32 79  1  0  0  0  0
 33 34  1  0  0  0  0
 33 80  1  0  0  0  0
 34 35  2  0  0  0  0
 34 81  1  0  0  0  0
 35 36  1  0  0  0  0
 35 82  1  0  0  0  0
 36 37  1  0  0  0  0
 37 38  2  0  0  0  0
 37 41  1  0  0  0  0
 38 39  1  0  0  0  0
 39 40  2  0  0  0  0
 39 83  1  0  0  0  0
 40 41  1  0  0  0  0
 40 84  1  0  0  0  0
M  CHG  1  19   1
M  END
>  <PARENT_CMPD_ID>
22468684_26

>  <STANDARD_TYPE>
IC50

>  <RELATION>
=

>  <STANDARD_VALUE>
9.5

>  <STANDARD_UNITS>
nM

>  <COMPOUND_KEY>
26

>  <PUBMED_ID>
22468684

>  <JOURNAL>
J.Med.Chem.

>  <YEAR>
2012

>  <VOLUME>
55

>  <FIRST_PAGE>
9025

>  <Company>
Amgen

>  <idx>
388

>  <Model>
Valid

>  <target>
8.0222759

>  <des_pred_mlr>
7.8561201

>  <RF_Canvas>
8.084157

>  <DNN_Canvas>
8.0796118

>  <pred_CoMFA>
8.7715998

>  <pred_COMSIA>
8.6211996

>  <pred_abm5>
8.8829803

>  <pred_ff8>
8.4802427

>  <pred_gau6>
8.8083143

>  <CID>
BACE_388

>  <active>
1

>  <des_class_bayes>
1

>  <maacs_class_bayes>
1

>  <radial_class_bayes>
1

>  <dend_class_bayes>
1

>  <molprint_class_bayes>
1

>  <RF_canvas>
1

>  <DNN_canvas>
1

$$$$
22468684_13
  MOE2015           3D

 84 88  0  0  1  0  0  0  0  0999 V2000
   20.7540   13.9030   29.6240 C   0  0  0  0  0  0  0  0  0  0  0  0
   20.1180   13.0250   30.6960 C   0  0  0  0  0  0  0  0  0  0  0  0
   19.1110   12.5510   29.6510 C   0  0  0  0  0  0  0  0  0  0  0  0
   20.0880   13.0170   28.5460 C   0  0  0  0  0  0  0  0  0  0  0  0
   21.0220   11.9730   27.9570 C   0  0  0  0  0  0  0  0  0  0  0  0
   19.4980   13.7800   27.4820 O   0  0  0  0  0  0  0  0  0  0  0  0
   18.8630   13.0730   26.4970 C   0  0  0  0  0  0  0  0  0  0  0  0
   17.9680   13.7880   25.7990 N   0  0  0  0  0  0  0  0  0  0  0  0
   17.3270   13.1510   24.8050 C   0  0  0  0  0  0  0  0  0  0  0  0
   17.5140   11.8140   24.4870 C   0  0  0  0  0  0  0  0  0  0  0  0
   16.7180   11.1690   23.3930 C   0  0  0  0  0  0  0  0  0  0  0  0
   15.3870   10.5170   23.8210 C   0  0  0  0  0  0  0  0  0  0  0  0
   14.4840   11.4940   24.5750 C   0  0  0  0  0  0  0  0  0  0  0  0
   15.6280    9.2840   24.6930 C   0  0  0  0  0  0  0  0  0  0  0  0
   14.6520   10.0720   22.5520 C   0  0  0  0  0  0  0  0  0  0  0  0
   18.4520   11.1090   25.2300 C   0  0  0  0  0  0  0  0  0  0  0  0
   19.1720   11.7450   26.2420 C   0  0  0  0  0  0  0  0  0  0  0  0
   20.2250   11.0360   27.0410 C   0  0  3  0  0  0  0  0  0  0  0  0
   21.2040   10.2370   26.2120 N   0  3  0  0  0  0  0  0  0  0  0  0
   21.9310   10.9950   25.1320 C   0  0  0  0  0  0  0  0  0  0  0  0
   22.3720   10.0110   24.0520 C   0  0  3  0  0  0  0  0  0  0  0  0
   21.2250    9.2430   23.6620 O   0  0  0  0  0  0  0  0  0  0  0  0
   23.0100   10.7130   22.8330 C   0  0  3  0  0  0  0  0  0  0  0  0
   24.0230   11.6760   23.2480 N   0  0  0  0  0  0  0  0  0  0  0  0
   23.7690   13.0290   23.3300 C   0  0  0  0  0  0  0  0  0  0  0  0
   22.6750   13.5260   23.0910 O   0  0  0  0  0  0  0  0  0  0  0  0
   24.9400   13.8460   23.8490 C   0  0  0  0  0  0  0  0  0  0  0  0
   26.1860   13.3150   23.4320 O   0  0  0  0  0  0  0  0  0  0  0  0
   26.6010   13.8510   22.1830 C   0  0  0  0  0  0  0  0  0  0  0  0
   23.5680    9.6620   21.8520 C   0  0  0  0  0  0  0  0  0  0  0  0
   24.3750   10.2600   20.7360 C   0  0  0  0  0  0  0  0  0  0  0  0
   25.7650   10.3070   20.8470 C   0  0  0  0  0  0  0  0  0  0  0  0
   23.7640   10.8250   19.6230 C   0  0  0  0  0  0  0  0  0  0  0  0
   24.5330   11.4360   18.6430 C   0  0  0  0  0  0  0  0  0  0  0  0
   25.9140   11.5030   18.7800 C   0  0  0  0  0  0  0  0  0  0  0  0
   26.5450   10.9410   19.8870 C   0  0  0  0  0  0  0  0  0  0  0  0
   27.9790   11.0860   20.0700 C   0  0  0  0  0  0  0  0  0  0  0  0
   28.7720   12.0360   19.6220 N   0  0  0  0  0  0  0  0  0  0  0  0
   30.0010   11.6990   20.1210 C   0  0  0  0  0  0  0  0  0  0  0  0
   29.9030   10.5600   20.8740 C   0  0  0  0  0  0  0  0  0  0  0  0
   28.6060   10.1550   20.8560 O   0  0  0  0  0  0  0  0  0  0  0  0
   21.8480   13.9250   29.6320 H   0  0  0  0  0  0  0  0  0  0  0  0
   20.3910   14.9380   29.6330 H   0  0  0  0  0  0  0  0  0  0  0  0
   19.6960   13.5550   31.5540 H   0  0  0  0  0  0  0  0  0  0  0  0
   20.7770   12.2310   31.0630 H   0  0  0  0  0  0  0  0  0  0  0  0
   18.1660   13.1070   29.6700 H   0  0  0  0  0  0  0  0  0  0  0  0
   18.8810   11.4830   29.6860 H   0  0  0  0  0  0  0  0  0  0  0  0
   21.5260   11.3880   28.7360 H   0  0  0  0  0  0  0  0  0  0  0  0
   21.8120   12.4920   27.4000 H   0  0  0  0  0  0  0  0  0  0  0  0
   16.6150   13.7670   24.2620 H   0  0  0  0  0  0  0  0  0  0  0  0
   17.3530   10.4250   22.8910 H   0  0  0  0  0  0  0  0  0  0  0  0
   16.5220   11.9290   22.6240 H   0  0  0  0  0  0  0  0  0  0  0  0
   14.8990   11.7710   25.5490 H   0  0  0  0  0  0  0  0  0  0  0  0
   13.4990   11.0520   24.7670 H   0  0  0  0  0  0  0  0  0  0  0  0
   14.3220   12.4120   23.9990 H   0  0  0  0  0  0  0  0  0  0  0  0
   16.0660    9.5470   25.6610 H   0  0  0  0  0  0  0  0  0  0  0  0
   16.3020    8.5730   24.2010 H   0  0  0  0  0  0  0  0  0  0  0  0
   14.6900    8.7560   24.9010 H   0  0  0  0  0  0  0  0  0  0  0  0
   14.4300   10.9230   21.8990 H   0  0  0  0  0  0  0  0  0  0  0  0
   13.7000    9.5830   22.7890 H   0  0  0  0  0  0  0  0  0  0  0  0
   15.2520    9.3590   21.9750 H   0  0  0  0  0  0  0  0  0  0  0  0
   18.6140   10.0570   25.0070 H   0  0  0  0  0  0  0  0  0  0  0  0
   19.7150   10.2910   27.6660 H   0  0  0  0  0  0  0  0  0  0  0  0
   20.6990    9.4830   25.7140 H   0  0  0  0  0  0  0  0  0  0  0  0
   21.8760    9.7490   26.8180 H   0  0  0  0  0  0  0  0  0  0  0  0
   22.7760   11.4980   25.6100 H   0  0  0  0  0  0  0  0  0  0  0  0
   21.2430   11.7310   24.7100 H   0  0  0  0  0  0  0  0  0  0  0  0
   23.0900    9.3100   24.4950 H   0  0  0  0  0  0  0  0  0  0  0  0
   20.8170    9.6490   22.8730 H   0  0  0  0  0  0  0  0  0  0  0  0
   22.2240   11.2640   22.3000 H   0  0  0  0  0  0  0  0  0  0  0  0
   24.9740   11.3770   23.4660 H   0  0  0  0  0  0  0  0  0  0  0  0
   24.8260   14.8950   23.5530 H   0  0  0  0  0  0  0  0  0  0  0  0
   24.9070   13.7950   24.9430 H   0  0  0  0  0  0  0  0  0  0  0  0
   27.5610   13.4020   21.9210 H   0  0  0  0  0  0  0  0  0  0  0  0
   26.7420   14.9340   22.2600 H   0  0  0  0  0  0  0  0  0  0  0  0
   25.8730   13.6230   21.4000 H   0  0  0  0  0  0  0  0  0  0  0  0
   22.7490    9.0690   21.4260 H   0  0  0  0  0  0  0  0  0  0  0  0
   24.1960    8.9430   22.3960 H   0  0  0  0  0  0  0  0  0  0  0  0
   26.2450    9.8750   21.7250 H   0  0  0  0  0  0  0  0  0  0  0  0
   22.6820   10.8070   19.5160 H   0  0  0  0  0  0  0  0  0  0  0  0
   24.0520   11.8820   17.7760 H   0  0  0  0  0  0  0  0  0  0  0  0
   26.4990   12.0130   18.0160 H   0  0  0  0  0  0  0  0  0  0  0  0
   30.8790   12.2940   19.9180 H   0  0  0  0  0  0  0  0  0  0  0  0
   30.5910    9.9550   21.4440 H   0  0  0  0  0  0  0  0  0  0  0  0
  1  2  1  0  0  0  0
  1  4  1  0  0  0  0
  1 42  1  0  0  0  0
  1 43  1  0  0  0  0
  2  3  1  0  0  0  0
  2 44  1  0  0  0  0
  2 45  1  0  0  0  0
  3  4  1  0  0  0  0
  3 46  1  0  0  0  0
  3 47  1  0  0  0  0
  4  5  1  0  0  0  0
  4  6  1  0  0  0  0
  5 18  1  0  0  0  0
  5 48  1  0  0  0  0
  5 49  1  0  0  0  0
  6  7  1  0  0  0  0
  7  8  1  0  0  0  0
  7 17  2  0  0  0  0
  8  9  2  0  0  0  0
  9 10  1  0  0  0  0
  9 50  1  0  0  0  0
 10 11  1  0  0  0  0
 10 16  2  0  0  0  0
 11 12  1  0  0  0  0
 11 51  1  0  0  0  0
 11 52  1  0  0  0  0
 12 13  1  0  0  0  0
 12 14  1  0  0  0  0
 12 15  1  0  0  0  0
 13 53  1  0  0  0  0
 13 54  1  0  0  0  0
 13 55  1  0  0  0  0
 14 56  1  0  0  0  0
 14 57  1  0  0  0  0
 14 58  1  0  0  0  0
 15 59  1  0  0  0  0
 15 60  1  0  0  0  0
 15 61  1  0  0  0  0
 16 17  1  0  0  0  0
 16 62  1  0  0  0  0
 17 18  1  0  0  0  0
 18 19  1  0  0  0  0
 18 63  1  0  0  0  0
 19 20  1  0  0  0  0
 19 64  1  0  0  0  0
 19 65  1  0  0  0  0
 20 21  1  0  0  0  0
 20 66  1  0  0  0  0
 20 67  1  0  0  0  0
 21 22  1  0  0  0  0
 21 23  1  0  0  0  0
 21 68  1  0  0  0  0
 22 69  1  0  0  0  0
 23 24  1  0  0  0  0
 23 30  1  0  0  0  0
 23 70  1  0  0  0  0
 24 25  1  0  0  0  0
 24 71  1  0  0  0  0
 25 26  2  0  0  0  0
 25 27  1  0  0  0  0
 27 28  1  0  0  0  0
 27 72  1  0  0  0  0
 27 73  1  0  0  0  0
 28 29  1  0  0  0  0
 29 74  1  0  0  0  0
 29 75  1  0  0  0  0
 29 76  1  0  0  0  0
 30 31  1  0  0  0  0
 30 77  1  0  0  0  0
 30 78  1  0  0  0  0
 31 32  1  0  0  0  0
 31 33  2  0  0  0  0
 32 36  2  0  0  0  0
 32 79  1  0  0  0  0
 33 34  1  0  0  0  0
 33 80  1  0  0  0  0
 34 35  2  0  0  0  0
 34 81  1  0  0  0  0
 35 36  1  0  0  0  0
 35 82  1  0  0  0  0
 36 37  1  0  0  0  0
 37 38  2  0  0  0  0
 37 41  1  0  0  0  0
 38 39  1  0  0  0  0
 39 40  2  0  0  0  0
 39 83  1  0  0  0  0
 40 41  1  0  0  0  0
 40 84  1  0  0  0  0
M  CHG  1  19   1
M  END
>  <PARENT_CMPD_ID>
22468684_13

>  <STANDARD_TYPE>
IC50

>  <RELATION>
=

>  <STANDARD_VALUE>
9.6000004

>  <STANDARD_UNITS>
nM

>  <COMPOUND_KEY>
13

>  <PUBMED_ID>
22468684

>  <JOURNAL>
J.Med.Chem.

>  <YEAR>
2012

>  <VOLUME>
55

>  <FIRST_PAGE>
9025

>  <Company>
Amgen

>  <idx>
389

>  <Model>
Valid

>  <target>
8.0177288

>  <des_pred_mlr>
7.8225002

>  <RF_Canvas>
7.8560982

>  <DNN_Canvas>
8.5105305

>  <pred_CoMFA>
8.5702

>  <pred_COMSIA>
8.5808001

>  <pred_abm5>
8.924448

>  <pred_ff8>
8.1878099

>  <pred_gau6>
8.7398529

>  <CID>
BACE_389

>  <active>
1

>  <des_class_bayes>
1

>  <maacs_class_bayes>
1

>  <radial_class_bayes>
1

>  <dend_class_bayes>
1

>  <molprint_class_bayes>
1

>  <RF_canvas>
1

>  <DNN_canvas>
1

$$$$
23769639_22
  MOE2015           3D

 91 96  0  0  1  0  0  0  0  0999 V2000
   19.2770   12.3120   29.8030 C   0  0  0  0  0  0  0  0  0  0  0  0
   20.2270   12.8190   30.8840 C   0  0  0  0  0  0  0  0  0  0  0  0
   20.8860   13.7140   29.8390 C   0  0  0  0  0  0  0  0  0  0  0  0
   20.2710   12.8270   28.7300 C   0  0  0  0  0  0  0  0  0  0  0  0
   21.2350   11.8250   28.0980 C   0  0  0  0  0  0  0  0  0  0  0  0
   19.6710   13.6060   27.6830 O   0  0  0  0  0  0  0  0  0  0  0  0
   19.0240   12.9010   26.7090 C   0  0  0  0  0  0  0  0  0  0  0  0
   18.0950   13.6060   26.0570 N   0  0  0  0  0  0  0  0  0  0  0  0
   17.4400   12.9700   25.0630 C   0  0  0  0  0  0  0  0  0  0  0  0
   17.6960   11.6610   24.6780 C   0  0  0  0  0  0  0  0  0  0  0  0
   17.0200   11.0240   23.5040 C   0  0  0  0  0  0  0  0  0  0  0  0
   15.9530    9.9510   23.7980 C   0  0  0  0  0  0  0  0  0  0  0  0
   18.6700   10.9710   25.3820 C   0  0  0  0  0  0  0  0  0  0  0  0
   19.3680   11.5950   26.4080 C   0  0  0  0  0  0  0  0  0  0  0  0
   20.4560   10.8960   27.1590 C   0  0  3  0  0  0  0  0  0  0  0  0
   21.4240   10.1420   26.2770 N   0  3  0  0  0  0  0  0  0  0  0  0
   22.0730   10.9040   25.1500 C   0  0  0  0  0  0  0  0  0  0  0  0
   22.4880    9.8970   24.0750 C   0  0  3  0  0  0  0  0  0  0  0  0
   21.3340    9.1520   23.6730 O   0  0  0  0  0  0  0  0  0  0  0  0
   23.1170   10.5670   22.8470 C   0  0  3  0  0  0  0  0  0  0  0  0
   23.6180    9.5140   21.8390 C   0  0  0  0  0  0  0  0  0  0  0  0
   24.3460   10.1130   20.6670 C   0  0  0  0  0  0  0  0  0  0  0  0
   25.7380   10.0770   20.6190 C   0  0  0  0  0  0  0  0  0  0  0  0
   23.6520   10.7230   19.6290 C   0  0  0  0  0  0  0  0  0  0  0  0
   24.3400   11.2870   18.5630 C   0  0  0  0  0  0  0  0  0  0  0  0
   25.7260   11.2420   18.5210 C   0  0  0  0  0  0  0  0  0  0  0  0
   26.4380   10.6270   19.5460 C   0  0  0  0  0  0  0  0  0  0  0  0
   27.9220   10.4400   19.4510 C   0  0  0  0  0  0  0  0  0  0  0  0
   28.7520   11.7130   19.4470 C   0  0  0  0  0  0  0  0  0  0  0  0
   28.7130   12.4400   20.7790 C   0  0  0  0  0  0  0  0  0  0  0  0
   27.9720   13.7640   20.6860 C   0  0  0  0  0  0  0  0  0  0  0  0
   27.2520   14.0070   21.9170 N   0  0  0  0  0  0  0  0  0  0  0  0
   25.9930   13.4890   22.0150 C   0  0  0  0  0  0  0  0  0  0  0  0
   27.8590   14.6900   22.9670 C   0  0  0  0  0  0  0  0  0  0  0  0
   28.9840   15.1820   22.9360 O   0  0  0  0  0  0  0  0  0  0  0  0
   27.0590   14.7770   24.2260 C   0  0  0  0  0  0  0  0  0  0  0  0
   25.8560   14.1940   24.3080 C   0  0  0  0  0  0  0  0  0  0  0  0
   25.3280   13.5260   23.1670 C   0  0  0  0  0  0  0  0  0  0  0  0
   24.0500   12.8240   23.1140 C   0  0  0  0  0  0  0  0  0  0  0  0
   23.0320   13.4280   22.8170 O   0  0  0  0  0  0  0  0  0  0  0  0
   24.1890   11.4620   23.2310 N   0  0  0  0  0  0  0  0  0  0  0  0
   18.3090   12.8270   29.7970 H   0  0  0  0  0  0  0  0  0  0  0  0
   19.0930   11.2340   29.8220 H   0  0  0  0  0  0  0  0  0  0  0  0
   20.8930   12.0430   31.2780 H   0  0  0  0  0  0  0  0  0  0  0  0
   19.7560   13.3370   31.7230 H   0  0  0  0  0  0  0  0  0  0  0  0
   21.9790   13.7480   29.8830 H   0  0  0  0  0  0  0  0  0  0  0  0
   20.5100   14.7440   29.8460 H   0  0  0  0  0  0  0  0  0  0  0  0
   21.7580   11.2340   28.8600 H   0  0  0  0  0  0  0  0  0  0  0  0
   22.0070   12.3800   27.5480 H   0  0  0  0  0  0  0  0  0  0  0  0
   16.6930   13.5740   24.5540 H   0  0  0  0  0  0  0  0  0  0  0  0
   17.8000   10.6000   22.8560 H   0  0  0  0  0  0  0  0  0  0  0  0
   16.5650   11.8220   22.9000 H   0  0  0  0  0  0  0  0  0  0  0  0
   16.5290    8.7020   24.4610 C   0  0  0  0  0  0  0  0  0  0  0  0
   17.3920    8.3160   23.9060 H   0  0  0  0  0  0  0  0  0  0  0  0
   15.7840    7.8980   24.5040 H   0  0  0  0  0  0  0  0  0  0  0  0
   16.8400    8.8880   25.4930 H   0  0  0  0  0  0  0  0  0  0  0  0
   15.3430    9.5250   22.4540 C   0  0  0  0  0  0  0  0  0  0  0  0
   16.1030    9.1000   21.7890 H   0  0  0  0  0  0  0  0  0  0  0  0
   14.8850   10.3750   21.9360 H   0  0  0  0  0  0  0  0  0  0  0  0
   14.5620    8.7670   22.5900 H   0  0  0  0  0  0  0  0  0  0  0  0
   14.8350   10.5130   24.6820 C   0  0  0  0  0  0  0  0  0  0  0  0
   15.1990   10.7740   25.6820 H   0  0  0  0  0  0  0  0  0  0  0  0
   14.0280    9.7830   24.8130 H   0  0  0  0  0  0  0  0  0  0  0  0
   14.3950   11.4150   24.2410 H   0  0  0  0  0  0  0  0  0  0  0  0
   18.9040    9.9500   25.0970 H   0  0  0  0  0  0  0  0  0  0  0  0
   19.9790   10.1190   27.7700 H   0  0  0  0  0  0  0  0  0  0  0  0
   20.9220    9.3590   25.8230 H   0  0  0  0  0  0  0  0  0  0  0  0
   22.1430    9.6870   26.8550 H   0  0  0  0  0  0  0  0  0  0  0  0
   22.9220   11.4410   25.5800 H   0  0  0  0  0  0  0  0  0  0  0  0
   21.3470   11.6130   24.7450 H   0  0  0  0  0  0  0  0  0  0  0  0
   23.1960    9.1840   24.5150 H   0  0  0  0  0  0  0  0  0  0  0  0
   20.8280    9.6490   23.0030 H   0  0  0  0  0  0  0  0  0  0  0  0
   22.3390   11.1530   22.3390 H   0  0  0  0  0  0  0  0  0  0  0  0
   22.7780    8.9150   21.4640 H   0  0  0  0  0  0  0  0  0  0  0  0
   24.2820    8.8030   22.3490 H   0  0  0  0  0  0  0  0  0  0  0  0
   26.2900    9.5810   21.4150 H   0  0  0  0  0  0  0  0  0  0  0  0
   22.5660   10.7710   19.6420 H   0  0  0  0  0  0  0  0  0  0  0  0
   23.7890   11.7600   17.7540 H   0  0  0  0  0  0  0  0  0  0  0  0
   26.2440   11.6590   17.6610 H   0  0  0  0  0  0  0  0  0  0  0  0
   28.1260    9.8850   18.5250 H   0  0  0  0  0  0  0  0  0  0  0  0
   28.2760    9.7840   20.2570 H   0  0  0  0  0  0  0  0  0  0  0  0
   28.4710   12.3660   18.6130 H   0  0  0  0  0  0  0  0  0  0  0  0
   29.7920   11.4190   19.2540 H   0  0  0  0  0  0  0  0  0  0  0  0
   29.7420   12.6530   21.0980 H   0  0  0  0  0  0  0  0  0  0  0  0
   28.3000   11.7920   21.5620 H   0  0  0  0  0  0  0  0  0  0  0  0
   27.2630   13.7950   19.8500 H   0  0  0  0  0  0  0  0  0  0  0  0
   28.6900   14.5750   20.5150 H   0  0  0  0  0  0  0  0  0  0  0  0
   25.5900   13.0010   21.1320 H   0  0  0  0  0  0  0  0  0  0  0  0
   27.5090   15.3140   25.0520 H   0  0  0  0  0  0  0  0  0  0  0  0
   25.2680   14.2490   25.2180 H   0  0  0  0  0  0  0  0  0  0  0  0
   25.0800   11.0790   23.5370 H   0  0  0  0  0  0  0  0  0  0  0  0
  1  2  1  0  0  0  0
  1  4  1  0  0  0  0
  1 42  1  0  0  0  0
  1 43  1  0  0  0  0
  2  3  1  0  0  0  0
  2 44  1  0  0  0  0
  2 45  1  0  0  0  0
  3  4  1  0  0  0  0
  3 46  1  0  0  0  0
  3 47  1  0  0  0  0
  4  5  1  0  0  0  0
  4  6  1  0  0  0  0
  5 15  1  0  0  0  0
  5 48  1  0  0  0  0
  5 49  1  0  0  0  0
  6  7  1  0  0  0  0
  7  8  1  0  0  0  0
  7 14  2  0  0  0  0
  8  9  2  0  0  0  0
  9 10  1  0  0  0  0
  9 50  1  0  0  0  0
 10 11  1  0  0  0  0
 10 13  2  0  0  0  0
 11 12  1  0  0  0  0
 11 51  1  0  0  0  0
 11 52  1  0  0  0  0
 12 53  1  0  0  0  0
 12 57  1  0  0  0  0
 12 61  1  0  0  0  0
 13 14  1  0  0  0  0
 13 65  1  0  0  0  0
 14 15  1  0  0  0  0
 15 16  1  0  0  0  0
 15 66  1  0  0  0  0
 16 17  1  0  0  0  0
 16 67  1  0  0  0  0
 16 68  1  0  0  0  0
 17 18  1  0  0  0  0
 17 69  1  0  0  0  0
 17 70  1  0  0  0  0
 18 19  1  0  0  0  0
 18 20  1  0  0  0  0
 18 71  1  0  0  0  0
 19 72  1  0  0  0  0
 20 21  1  0  0  0  0
 20 41  1  0  0  0  0
 20 73  1  0  0  0  0
 21 22  1  0  0  0  0
 21 74  1  0  0  0  0
 21 75  1  0  0  0  0
 22 23  1  0  0  0  0
 22 24  2  0  0  0  0
 23 27  2  0  0  0  0
 23 76  1  0  0  0  0
 24 25  1  0  0  0  0
 24 77  1  0  0  0  0
 25 26  2  0  0  0  0
 25 78  1  0  0  0  0
 26 27  1  0  0  0  0
 26 79  1  0  0  0  0
 27 28  1  0  0  0  0
 28 29  1  0  0  0  0
 28 80  1  0  0  0  0
 28 81  1  0  0  0  0
 29 30  1  0  0  0  0
 29 82  1  0  0  0  0
 29 83  1  0  0  0  0
 30 31  1  0  0  0  0
 30 84  1  0  0  0  0
 30 85  1  0  0  0  0
 31 32  1  0  0  0  0
 31 86  1  0  0  0  0
 31 87  1  0  0  0  0
 32 33  1  0  0  0  0
 32 34  1  0  0  0  0
 33 38  2  0  0  0  0
 33 88  1  0  0  0  0
 34 35  2  0  0  0  0
 34 36  1  0  0  0  0
 36 37  2  0  0  0  0
 36 89  1  0  0  0  0
 37 38  1  0  0  0  0
 37 90  1  0  0  0  0
 38 39  1  0  0  0  0
 39 40  2  0  0  0  0
 39 41  1  0  0  0  0
 41 91  1  0  0  0  0
 53 54  1  0  0  0  0
 53 55  1  0  0  0  0
 53 56  1  0  0  0  0
 57 58  1  0  0  0  0
 57 59  1  0  0  0  0
 57 60  1  0  0  0  0
 61 62  1  0  0  0  0
 61 63  1  0  0  0  0
 61 64  1  0  0  0  0
M  CHG  1  16   1
M  END
>  <PARENT_CMPD_ID>
23769639_22

>  <STANDARD_TYPE>
IC50

>  <RELATION>
=

>  <STANDARD_VALUE>
0.0097000003

>  <STANDARD_UNITS>
uM

>  <COMPOUND_KEY>
22

>  <PUBMED_ID>
23769639

>  <JOURNAL>
Bioorg.Med.Chem.Lett.

>  <YEAR>
2013

>  <VOLUME>
23

>  <FIRST_PAGE>
4459

>  <Company>
Amgen

>  <idx>
390

>  <Model>
Valid

>  <target>
8.0132284

>  <des_pred_mlr>
9.2820396

>  <RF_Canvas>
8.1142569

>  <DNN_Canvas>
8.3122673

>  <pred_CoMFA>
8.1444998

>  <pred_COMSIA>
8.2241001

>  <pred_abm5>
8.4044151

>  <pred_ff8>
8.4087152

>  <pred_gau6>
8.3765163

>  <CID>
BACE_390

>  <active>
1

>  <des_class_bayes>
1

>  <maacs_class_bayes>
1

>  <radial_class_bayes>
1

>  <dend_class_bayes>
1

>  <molprint_class_bayes>
1

>  <RF_canvas>
1

>  <DNN_canvas>
1

$$$$
22468684_40
  MOE2015           3D

 88 92  0  0  1  0  0  0  0  0999 V2000
   20.7580   13.9010   29.6190 C   0  0  0  0  0  0  0  0  0  0  0  0
   20.1210   13.0240   30.6920 C   0  0  0  0  0  0  0  0  0  0  0  0
   19.1140   12.5500   29.6480 C   0  0  0  0  0  0  0  0  0  0  0  0
   20.0900   13.0150   28.5420 C   0  0  0  0  0  0  0  0  0  0  0  0
   21.0220   11.9700   27.9500 C   0  0  0  0  0  0  0  0  0  0  0  0
   19.4980   13.7790   27.4790 O   0  0  0  0  0  0  0  0  0  0  0  0
   18.8620   13.0720   26.4950 C   0  0  0  0  0  0  0  0  0  0  0  0
   17.9660   13.7880   25.7980 N   0  0  0  0  0  0  0  0  0  0  0  0
   17.3240   13.1510   24.8050 C   0  0  0  0  0  0  0  0  0  0  0  0
   17.5120   11.8160   24.4840 C   0  0  0  0  0  0  0  0  0  0  0  0
   16.7160   11.1710   23.3910 C   0  0  0  0  0  0  0  0  0  0  0  0
   15.3860   10.5170   23.8190 C   0  0  0  0  0  0  0  0  0  0  0  0
   14.4820   11.4930   24.5730 C   0  0  0  0  0  0  0  0  0  0  0  0
   15.6280    9.2850   24.6900 C   0  0  0  0  0  0  0  0  0  0  0  0
   14.6510   10.0720   22.5500 C   0  0  0  0  0  0  0  0  0  0  0  0
   18.4490   11.1090   25.2270 C   0  0  0  0  0  0  0  0  0  0  0  0
   19.1700   11.7440   26.2390 C   0  0  0  0  0  0  0  0  0  0  0  0
   20.2230   11.0340   27.0370 C   0  0  3  0  0  0  0  0  0  0  0  0
   21.1990   10.2310   26.2070 N   0  3  0  0  0  0  0  0  0  0  0  0
   21.9240   10.9850   25.1220 C   0  0  0  0  0  0  0  0  0  0  0  0
   22.3550   10.0000   24.0390 C   0  0  3  0  0  0  0  0  0  0  0  0
   21.2080    9.2340   23.6550 O   0  0  0  0  0  0  0  0  0  0  0  0
   22.9820   10.7080   22.8170 C   0  0  3  0  0  0  0  0  0  0  0  0
   24.0130   11.6470   23.2370 N   0  0  0  0  0  0  0  0  0  0  0  0
   23.7820   13.0090   23.3290 C   0  0  0  0  0  0  0  0  0  0  0  0
   22.6930   13.5150   23.0790 O   0  0  0  0  0  0  0  0  0  0  0  0
   24.9830   13.7860   23.9080 C   0  0  0  0  0  0  0  0  0  0  0  0
   24.8860   15.1830   23.7180 O   0  0  0  0  0  0  0  0  0  0  0  0
   26.2200   13.2550   23.4500 O   0  0  0  0  0  0  0  0  0  0  0  0
   26.6050   13.7620   22.1810 C   0  0  0  0  0  0  0  0  0  0  0  0
   23.5110    9.6690   21.8090 C   0  0  0  0  0  0  0  0  0  0  0  0
   24.3380   10.2700   20.7100 C   0  0  0  0  0  0  0  0  0  0  0  0
   25.7270   10.3040   20.8490 C   0  0  0  0  0  0  0  0  0  0  0  0
   23.7580   10.8440   19.5870 C   0  0  0  0  0  0  0  0  0  0  0  0
   24.5560   11.4420   18.6230 C   0  0  0  0  0  0  0  0  0  0  0  0
   25.9380   11.4840   18.7830 C   0  0  0  0  0  0  0  0  0  0  0  0
   26.5440   10.9140   19.9000 C   0  0  0  0  0  0  0  0  0  0  0  0
   27.9940   11.0320   20.0930 C   0  0  0  0  0  0  0  0  0  0  0  0
   28.7210   12.0320   19.6390 N   0  0  0  0  0  0  0  0  0  0  0  0
   30.0320   11.8780   20.0280 C   0  0  0  0  0  0  0  0  0  0  0  0
   30.3050   10.7590   20.7760 C   0  0  0  0  0  0  0  0  0  0  0  0
   28.8790    9.8550   20.9890 S   0  0  0  0  0  0  0  0  0  0  0  0
   21.8520   13.9220   29.6260 H   0  0  0  0  0  0  0  0  0  0  0  0
   20.3950   14.9360   29.6280 H   0  0  0  0  0  0  0  0  0  0  0  0
   19.7000   13.5540   31.5500 H   0  0  0  0  0  0  0  0  0  0  0  0
   20.7810   12.2290   31.0590 H   0  0  0  0  0  0  0  0  0  0  0  0
   18.1690   13.1060   29.6680 H   0  0  0  0  0  0  0  0  0  0  0  0
   18.8840   11.4810   29.6840 H   0  0  0  0  0  0  0  0  0  0  0  0
   21.5270   11.3850   28.7290 H   0  0  0  0  0  0  0  0  0  0  0  0
   21.8110   12.4890   27.3920 H   0  0  0  0  0  0  0  0  0  0  0  0
   16.6110   13.7680   24.2620 H   0  0  0  0  0  0  0  0  0  0  0  0
   17.3510   10.4280   22.8870 H   0  0  0  0  0  0  0  0  0  0  0  0
   16.5190   11.9320   22.6220 H   0  0  0  0  0  0  0  0  0  0  0  0
   14.8970   11.7710   25.5470 H   0  0  0  0  0  0  0  0  0  0  0  0
   13.4970   11.0510   24.7650 H   0  0  0  0  0  0  0  0  0  0  0  0
   14.3190   12.4120   23.9980 H   0  0  0  0  0  0  0  0  0  0  0  0
   16.0650    9.5480   25.6590 H   0  0  0  0  0  0  0  0  0  0  0  0
   16.3030    8.5750   24.1990 H   0  0  0  0  0  0  0  0  0  0  0  0
   14.6910    8.7560   24.8980 H   0  0  0  0  0  0  0  0  0  0  0  0
   14.4280   10.9240   21.8970 H   0  0  0  0  0  0  0  0  0  0  0  0
   13.6990    9.5830   22.7870 H   0  0  0  0  0  0  0  0  0  0  0  0
   15.2510    9.3590   21.9720 H   0  0  0  0  0  0  0  0  0  0  0  0
   18.6100   10.0570   25.0030 H   0  0  0  0  0  0  0  0  0  0  0  0
   19.7120   10.2900   27.6630 H   0  0  0  0  0  0  0  0  0  0  0  0
   20.6900    9.4770   25.7130 H   0  0  0  0  0  0  0  0  0  0  0  0
   21.8700    9.7430   26.8140 H   0  0  0  0  0  0  0  0  0  0  0  0
   22.7720   11.4850   25.5970 H   0  0  0  0  0  0  0  0  0  0  0  0
   21.2370   11.7250   24.7050 H   0  0  0  0  0  0  0  0  0  0  0  0
   23.0780    9.2990   24.4740 H   0  0  0  0  0  0  0  0  0  0  0  0
   20.7880    9.6460   22.8750 H   0  0  0  0  0  0  0  0  0  0  0  0
   22.1950   11.2780   22.3040 H   0  0  0  0  0  0  0  0  0  0  0  0
   24.9550   11.3220   23.4510 H   0  0  0  0  0  0  0  0  0  0  0  0
   24.9350   13.5570   24.9820 H   0  0  0  0  0  0  0  0  0  0  0  0
   26.8230   14.8330   22.2350 H   0  0  0  0  0  0  0  0  0  0  0  0
   22.6740    9.1120   21.3670 H   0  0  0  0  0  0  0  0  0  0  0  0
   25.4240   15.9070   24.8150 C   0  0  0  0  0  0  0  0  0  0  0  0
   25.3730   16.9740   24.5790 H   0  0  0  0  0  0  0  0  0  0  0  0
   24.8370   15.7250   25.7200 H   0  0  0  0  0  0  0  0  0  0  0  0
   26.4710   15.6370   24.9810 H   0  0  0  0  0  0  0  0  0  0  0  0
   24.1140    8.9160   22.3340 H   0  0  0  0  0  0  0  0  0  0  0  0
   26.1650    9.8690   21.7450 H   0  0  0  0  0  0  0  0  0  0  0  0
   25.8350   13.5710   21.4290 H   0  0  0  0  0  0  0  0  0  0  0  0
   27.5270   13.2570   21.8860 H   0  0  0  0  0  0  0  0  0  0  0  0
   22.6780   10.8410   19.4580 H   0  0  0  0  0  0  0  0  0  0  0  0
   24.1000   11.8970   17.7470 H   0  0  0  0  0  0  0  0  0  0  0  0
   26.5430   11.9810   18.0260 H   0  0  0  0  0  0  0  0  0  0  0  0
   30.7600   12.6250   19.7370 H   0  0  0  0  0  0  0  0  0  0  0  0
   31.2520   10.4390   21.1850 H   0  0  0  0  0  0  0  0  0  0  0  0
  1  2  1  0  0  0  0
  1  4  1  0  0  0  0
  1 43  1  0  0  0  0
  1 44  1  0  0  0  0
  2  3  1  0  0  0  0
  2 45  1  0  0  0  0
  2 46  1  0  0  0  0
  3  4  1  0  0  0  0
  3 47  1  0  0  0  0
  3 48  1  0  0  0  0
  4  5  1  0  0  0  0
  4  6  1  0  0  0  0
  5 18  1  0  0  0  0
  5 49  1  0  0  0  0
  5 50  1  0  0  0  0
  6  7  1  0  0  0  0
  7  8  2  0  0  0  0
  7 17  1  0  0  0  0
  8  9  1  0  0  0  0
  9 10  2  0  0  0  0
  9 51  1  0  0  0  0
 10 11  1  0  0  0  0
 10 16  1  0  0  0  0
 11 12  1  0  0  0  0
 11 52  1  0  0  0  0
 11 53  1  0  0  0  0
 12 13  1  0  0  0  0
 12 14  1  0  0  0  0
 12 15  1  0  0  0  0
 13 54  1  0  0  0  0
 13 55  1  0  0  0  0
 13 56  1  0  0  0  0
 14 57  1  0  0  0  0
 14 58  1  0  0  0  0
 14 59  1  0  0  0  0
 15 60  1  0  0  0  0
 15 61  1  0  0  0  0
 15 62  1  0  0  0  0
 16 17  2  0  0  0  0
 16 63  1  0  0  0  0
 17 18  1  0  0  0  0
 18 19  1  0  0  0  0
 18 64  1  0  0  0  0
 19 20  1  0  0  0  0
 19 65  1  0  0  0  0
 19 66  1  0  0  0  0
 20 21  1  0  0  0  0
 20 67  1  0  0  0  0
 20 68  1  0  0  0  0
 21 22  1  0  0  0  0
 21 23  1  0  0  0  0
 21 69  1  0  0  0  0
 22 70  1  0  0  0  0
 23 24  1  0  0  0  0
 23 31  1  0  0  0  0
 23 71  1  0  0  0  0
 24 25  1  0  0  0  0
 24 72  1  0  0  0  0
 25 26  2  0  0  0  0
 25 27  1  0  0  0  0
 27 28  1  0  0  0  0
 27 29  1  0  0  0  0
 27 73  1  0  0  0  0
 28 76  1  0  0  0  0
 29 30  1  0  0  0  0
 30 74  1  0  0  0  0
 30 82  1  0  0  0  0
 30 83  1  0  0  0  0
 31 32  1  0  0  0  0
 31 75  1  0  0  0  0
 31 80  1  0  0  0  0
 32 33  2  0  0  0  0
 32 34  1  0  0  0  0
 33 37  1  0  0  0  0
 33 81  1  0  0  0  0
 34 35  2  0  0  0  0
 34 84  1  0  0  0  0
 35 36  1  0  0  0  0
 35 85  1  0  0  0  0
 36 37  2  0  0  0  0
 36 86  1  0  0  0  0
 37 38  1  0  0  0  0
 38 39  2  0  0  0  0
 38 42  1  0  0  0  0
 39 40  1  0  0  0  0
 40 41  2  0  0  0  0
 40 87  1  0  0  0  0
 41 42  1  0  0  0  0
 41 88  1  0  0  0  0
 76 77  1  0  0  0  0
 76 78  1  0  0  0  0
 76 79  1  0  0  0  0
M  CHG  1  19   1
M  END
>  <PARENT_CMPD_ID>
22468684_40

>  <STANDARD_TYPE>
IC50

>  <RELATION>
=

>  <STANDARD_VALUE>
9.8000002

>  <STANDARD_UNITS>
nM

>  <COMPOUND_KEY>
40

>  <PUBMED_ID>
22468684

>  <JOURNAL>
J.Med.Chem.

>  <YEAR>
2012

>  <VOLUME>
55

>  <FIRST_PAGE>
9025

>  <Company>
Amgen

>  <idx>
391

>  <Model>
Valid

>  <target>
8.0087738

>  <des_pred_mlr>
7.6985798

>  <RF_Canvas>
8.052803

>  <DNN_Canvas>
8.0762959

>  <pred_CoMFA>
9.0517998

>  <pred_COMSIA>
8.8290997

>  <pred_abm5>
9.0839643

>  <pred_ff8>
8.4565477

>  <pred_gau6>
8.9616871

>  <CID>
BACE_391

>  <active>
1

>  <des_class_bayes>
1

>  <maacs_class_bayes>
1

>  <radial_class_bayes>
1

>  <dend_class_bayes>
1

>  <molprint_class_bayes>
1

>  <RF_canvas>
1

>  <DNN_canvas>
1

$$$$
CHEMBL541736
  MOE2015           3D

 95 97  0  0  1  0  0  0  0  0999 V2000
   30.4090   10.6900   20.9600 C   0  0  0  0  0  0  0  0  0  0  0  0
   30.3170   12.1650   21.2840 C   0  0  0  0  0  0  0  0  0  0  0  0
   28.8710   12.5680   21.4250 C   0  0  0  0  0  0  0  0  0  0  0  0
   28.7120   13.9280   21.8860 N   0  0  0  0  0  0  0  0  0  0  0  0
   28.8980   15.0410   20.9820 C   0  0  0  0  0  0  0  0  0  0  0  0
   27.8210   15.1550   19.9330 C   0  0  0  0  0  0  0  0  0  0  0  0
   28.0660   16.3850   19.0870 C   0  0  0  0  0  0  0  0  0  0  0  0
   28.5060   14.1630   23.2280 C   0  0  0  0  0  0  0  0  0  0  0  0
   29.3800   14.0160   24.0700 O   0  0  0  0  0  0  0  0  0  0  0  0
   27.1520   14.6030   23.6020 C   0  0  0  0  0  0  0  0  0  0  0  0
   26.9890   15.7790   24.3120 C   0  0  0  0  0  0  0  0  0  0  0  0
   25.7080   16.1680   24.6850 C   0  0  0  0  0  0  0  0  0  0  0  0
   24.6050   15.3580   24.4220 C   0  0  0  0  0  0  0  0  0  0  0  0
   24.7850   14.1570   23.7420 C   0  0  0  0  0  0  0  0  0  0  0  0
   26.0570   13.7970   23.2990 C   0  0  0  0  0  0  0  0  0  0  0  0
   23.6070   13.2900   23.4860 C   0  0  0  0  0  0  0  0  0  0  0  0
   22.4700   13.7390   23.4140 O   0  0  0  0  0  0  0  0  0  0  0  0
   23.8630   11.9420   23.3730 N   0  0  0  0  0  0  0  0  0  0  0  0
   22.8380   10.9860   22.9690 C   0  0  3  0  0  0  0  0  0  0  0  0
   23.3780   10.0540   21.8710 C   0  0  0  0  0  0  0  0  0  0  0  0
   23.9160   10.8090   20.6830 C   0  0  0  0  0  0  0  0  0  0  0  0
   23.1300   11.7360   19.9970 C   0  0  0  0  0  0  0  0  0  0  0  0
   23.6670   12.4660   18.9480 C   0  0  0  0  0  0  0  0  0  0  0  0
   22.9050   13.3630   18.3220 F   0  0  0  0  0  0  0  0  0  0  0  0
   24.9720   12.2820   18.5440 C   0  0  0  0  0  0  0  0  0  0  0  0
   25.7400   11.3480   19.2070 C   0  0  0  0  0  0  0  0  0  0  0  0
   27.0040   11.1500   18.8300 F   0  0  0  0  0  0  0  0  0  0  0  0
   25.2300   10.6120   20.2640 C   0  0  0  0  0  0  0  0  0  0  0  0
   22.3380   10.2310   24.2090 C   0  0  3  0  0  0  0  0  0  0  0  0
   23.4370    9.7100   24.9580 O   0  0  0  0  0  0  0  0  0  0  0  0
   21.5360   11.1610   25.1190 C   0  0  0  0  0  0  0  0  0  0  0  0
   20.8870   10.3280   26.1870 N   0  3  0  0  0  0  0  0  0  0  0  0
   19.9390   11.0780   27.0690 C   0  0  0  0  0  0  0  0  0  0  0  0
   18.7390   11.6020   26.3260 C   0  0  0  0  0  0  0  0  0  0  0  0
   18.4470   12.9670   26.3170 C   0  0  0  0  0  0  0  0  0  0  0  0
   17.3830   13.4570   25.5690 C   0  0  0  0  0  0  0  0  0  0  0  0
   16.6020   12.5910   24.8160 C   0  0  0  0  0  0  0  0  0  0  0  0
   16.8570   11.2260   24.8370 C   0  0  0  0  0  0  0  0  0  0  0  0
   16.0810   10.4380   24.0350 O   0  0  0  0  0  0  0  0  0  0  0  0
   15.6570    9.2280   24.6520 C   0  0  0  0  0  0  0  0  0  0  0  0
   17.9180   10.7350   25.5950 C   0  0  0  0  0  0  0  0  0  0  0  0
   25.5220   17.4570   25.3740 C   0  0  0  0  0  0  0  0  0  0  0  0
   25.8580   18.6230   24.9090 N   0  0  0  0  0  0  0  0  0  0  0  0
   26.3960   18.5370   23.6160 O   0  0  0  0  0  0  0  0  0  0  0  0
   26.7960   19.8440   23.2050 C   0  0  0  0  0  0  0  0  0  0  0  0
   27.4110   19.7390   21.8440 C   0  0  0  0  0  0  0  0  0  0  0  0
   28.6450   20.1570   21.5330 C   0  0  0  0  0  0  0  0  0  0  0  0
   24.8790   17.4060   26.7300 C   0  0  0  0  0  0  0  0  0  0  0  0
   31.4560   10.3920   20.8450 H   0  0  0  0  0  0  0  0  0  0  0  0
   29.8880   10.4570   20.0260 H   0  0  0  0  0  0  0  0  0  0  0  0
   29.9730   10.0800   21.7580 H   0  0  0  0  0  0  0  0  0  0  0  0
   30.8050   12.7450   20.4920 H   0  0  0  0  0  0  0  0  0  0  0  0
   30.8670   12.3680   22.2100 H   0  0  0  0  0  0  0  0  0  0  0  0
   28.3850   11.9060   22.1520 H   0  0  0  0  0  0  0  0  0  0  0  0
   28.3380   12.4500   20.4780 H   0  0  0  0  0  0  0  0  0  0  0  0
   28.9350   15.9650   21.5740 H   0  0  0  0  0  0  0  0  0  0  0  0
   29.8840   14.9330   20.5150 H   0  0  0  0  0  0  0  0  0  0  0  0
   27.8070   14.2720   19.2850 H   0  0  0  0  0  0  0  0  0  0  0  0
   26.8330   15.2220   20.4030 H   0  0  0  0  0  0  0  0  0  0  0  0
   29.0350   16.3310   18.5790 H   0  0  0  0  0  0  0  0  0  0  0  0
   28.0480   17.2960   19.6950 H   0  0  0  0  0  0  0  0  0  0  0  0
   27.2900   16.4780   18.3220 H   0  0  0  0  0  0  0  0  0  0  0  0
   27.8490   16.4020   24.5500 H   0  0  0  0  0  0  0  0  0  0  0  0
   23.6080   15.6670   24.7280 H   0  0  0  0  0  0  0  0  0  0  0  0
   26.2110   12.8920   22.7200 H   0  0  0  0  0  0  0  0  0  0  0  0
   24.7810   11.5720   23.5930 H   0  0  0  0  0  0  0  0  0  0  0  0
   21.9870   11.5370   22.5500 H   0  0  0  0  0  0  0  0  0  0  0  0
   24.1690    9.4160   22.2850 H   0  0  0  0  0  0  0  0  0  0  0  0
   22.5840    9.3800   21.5270 H   0  0  0  0  0  0  0  0  0  0  0  0
   22.0970   11.9230   20.2770 H   0  0  0  0  0  0  0  0  0  0  0  0
   25.3840   12.8560   17.7220 H   0  0  0  0  0  0  0  0  0  0  0  0
   25.8790    9.8930   20.7560 H   0  0  0  0  0  0  0  0  0  0  0  0
   21.7070    9.3890   23.8980 H   0  0  0  0  0  0  0  0  0  0  0  0
   23.8190    8.9560   24.4700 H   0  0  0  0  0  0  0  0  0  0  0  0
   20.7440   11.6660   24.5600 H   0  0  0  0  0  0  0  0  0  0  0  0
   22.1660   11.8870   25.6420 H   0  0  0  0  0  0  0  0  0  0  0  0
   20.4000    9.5270   25.7690 H   0  0  0  0  0  0  0  0  0  0  0  0
   21.6490    9.9230   26.7510 H   0  0  0  0  0  0  0  0  0  0  0  0
   19.6200   10.3790   27.8490 H   0  0  0  0  0  0  0  0  0  0  0  0
   20.5150   11.8800   27.5430 H   0  0  0  0  0  0  0  0  0  0  0  0
   19.0590   13.6730   26.8760 H   0  0  0  0  0  0  0  0  0  0  0  0
   17.1690   14.5230   25.5580 H   0  0  0  0  0  0  0  0  0  0  0  0
   15.7860   12.9800   24.2130 H   0  0  0  0  0  0  0  0  0  0  0  0
   14.7960    8.8510   24.0920 H   0  0  0  0  0  0  0  0  0  0  0  0
   15.3390    9.3850   25.6890 H   0  0  0  0  0  0  0  0  0  0  0  0
   16.4460    8.4710   24.5990 H   0  0  0  0  0  0  0  0  0  0  0  0
   18.1240    9.6690   25.5890 H   0  0  0  0  0  0  0  0  0  0  0  0
   25.9140   20.4930   23.1560 H   0  0  0  0  0  0  0  0  0  0  0  0
   27.5030   20.2570   23.9340 H   0  0  0  0  0  0  0  0  0  0  0  0
   26.7940   19.2920   21.0680 H   0  0  0  0  0  0  0  0  0  0  0  0
   29.0280   20.0510   20.5220 H   0  0  0  0  0  0  0  0  0  0  0  0
   29.2980   20.6110   22.2720 H   0  0  0  0  0  0  0  0  0  0  0  0
   24.8510   16.3890   27.1290 H   0  0  0  0  0  0  0  0  0  0  0  0
   23.8570   17.7910   26.6580 H   0  0  0  0  0  0  0  0  0  0  0  0
   25.4450   18.0330   27.4260 H   0  0  0  0  0  0  0  0  0  0  0  0
  1  2  1  0  0  0  0
  1 49  1  0  0  0  0
  1 50  1  0  0  0  0
  1 51  1  0  0  0  0
  2  3  1  0  0  0  0
  2 52  1  0  0  0  0
  2 53  1  0  0  0  0
  3  4  1  0  0  0  0
  3 54  1  0  0  0  0
  3 55  1  0  0  0  0
  4  5  1  0  0  0  0
  4  8  1  0  0  0  0
  5  6  1  0  0  0  0
  5 56  1  0  0  0  0
  5 57  1  0  0  0  0
  6  7  1  0  0  0  0
  6 58  1  0  0  0  0
  6 59  1  0  0  0  0
  7 60  1  0  0  0  0
  7 61  1  0  0  0  0
  7 62  1  0  0  0  0
  8  9  2  0  0  0  0
  8 10  1  0  0  0  0
 10 11  1  0  0  0  0
 10 15  2  0  0  0  0
 11 12  2  0  0  0  0
 11 63  1  0  0  0  0
 12 13  1  0  0  0  0
 12 42  1  0  0  0  0
 13 14  2  0  0  0  0
 13 64  1  0  0  0  0
 14 15  1  0  0  0  0
 14 16  1  0  0  0  0
 15 65  1  0  0  0  0
 16 17  2  0  0  0  0
 16 18  1  0  0  0  0
 18 19  1  0  0  0  0
 18 66  1  0  0  0  0
 19 20  1  0  0  0  0
 19 29  1  0  0  0  0
 19 67  1  0  0  0  0
 20 21  1  0  0  0  0
 20 68  1  0  0  0  0
 20 69  1  0  0  0  0
 21 22  1  0  0  0  0
 21 28  2  0  0  0  0
 22 23  2  0  0  0  0
 22 70  1  0  0  0  0
 23 24  1  0  0  0  0
 23 25  1  0  0  0  0
 25 26  2  0  0  0  0
 25 71  1  0  0  0  0
 26 27  1  0  0  0  0
 26 28  1  0  0  0  0
 28 72  1  0  0  0  0
 29 30  1  0  0  0  0
 29 31  1  0  0  0  0
 29 73  1  0  0  0  0
 30 74  1  0  0  0  0
 31 32  1  0  0  0  0
 31 75  1  0  0  0  0
 31 76  1  0  0  0  0
 32 33  1  0  0  0  0
 32 77  1  0  0  0  0
 32 78  1  0  0  0  0
 33 34  1  0  0  0  0
 33 79  1  0  0  0  0
 33 80  1  0  0  0  0
 34 35  1  0  0  0  0
 34 41  2  0  0  0  0
 35 36  2  0  0  0  0
 35 81  1  0  0  0  0
 36 37  1  0  0  0  0
 36 82  1  0  0  0  0
 37 38  2  0  0  0  0
 37 83  1  0  0  0  0
 38 39  1  0  0  0  0
 38 41  1  0  0  0  0
 39 40  1  0  0  0  0
 40 84  1  0  0  0  0
 40 85  1  0  0  0  0
 40 86  1  0  0  0  0
 41 87  1  0  0  0  0
 42 43  2  0  0  0  0
 42 48  1  0  0  0  0
 43 44  1  0  0  0  0
 44 45  1  0  0  0  0
 45 46  1  0  0  0  0
 45 88  1  0  0  0  0
 45 89  1  0  0  0  0
 46 47  2  0  0  0  0
 46 90  1  0  0  0  0
 47 91  1  0  0  0  0
 47 92  1  0  0  0  0
 48 93  1  0  0  0  0
 48 94  1  0  0  0  0
 48 95  1  0  0  0  0
M  CHG  1  32   1
M  END
>  <PARENT_CMPD_ID>
CHEMBL541736

>  <STANDARD_TYPE>
IC50

>  <RELATION>
=

>  <STANDARD_VALUE>
10

>  <STANDARD_UNITS>
nM

>  <COMPOUND_KEY>
1g

>  <PUBMED_ID>
19375914

>  <JOURNAL>
Bioorg. Med. Chem. Lett.

>  <YEAR>
2009

>  <VOLUME>
19

>  <FIRST_PAGE>
2654

>  <Company>
BMS

>  <idx>
392

>  <Model>
Valid

>  <target>
8

>  <des_pred_mlr>
7.8575802

>  <RF_Canvas>
7.4389653

>  <DNN_Canvas>
7.0900702

>  <pred_CoMFA>
7.1589999

>  <pred_COMSIA>
8.9636002

>  <pred_abm5>
7.4412713

>  <pred_ff8>
6.8839765

>  <pred_gau6>
7.6256523

>  <CID>
BACE_392

>  <active>
1

>  <des_class_bayes>
1

>  <maacs_class_bayes>
0

>  <radial_class_bayes>
0

>  <dend_class_bayes>
1

>  <molprint_class_bayes>
1

>  <RF_canvas>
1

>  <DNN_canvas>
1

$$$$
CHEMBL539465
  MOE2015           3D

 88 90  0  0  1  0  0  0  0  0999 V2000
   32.5280   12.5110   25.6170 C   0  0  0  0  0  0  0  0  0  0  0  0
   31.1330   13.1100   25.6730 C   0  0  0  0  0  0  0  0  0  0  0  0
   30.1530   12.3280   24.7970 C   0  0  0  0  0  0  0  0  0  0  0  0
   28.8070   12.9120   24.8380 N   0  0  0  0  0  0  0  0  0  0  0  0
   27.9020   12.4360   25.8950 C   0  0  0  0  0  0  0  0  0  0  0  0
   27.3080   11.0620   25.5840 C   0  0  0  0  0  0  0  0  0  0  0  0
   26.2800   10.6570   26.6280 C   0  0  0  0  0  0  0  0  0  0  0  0
   28.5090   13.9090   23.9020 C   0  0  0  0  0  0  0  0  0  0  0  0
   29.3320   14.3620   23.1170 O   0  0  0  0  0  0  0  0  0  0  0  0
   27.1520   14.4770   23.8890 C   0  0  0  0  0  0  0  0  0  0  0  0
   26.9470   15.7270   24.4580 C   0  0  0  0  0  0  0  0  0  0  0  0
   25.6500   16.1810   24.6740 C   0  0  0  0  0  0  0  0  0  0  0  0
   25.4110   17.5000   25.3390 C   0  0  0  0  0  0  0  0  0  0  0  0
   25.3560   17.3700   26.8540 C   0  0  0  0  0  0  0  0  0  0  0  0
   24.9900   18.6110   27.4410 O   0  0  0  0  0  0  0  0  0  0  0  0
   24.5740   15.3640   24.3250 C   0  0  0  0  0  0  0  0  0  0  0  0
   24.7860   14.1230   23.7280 C   0  0  0  0  0  0  0  0  0  0  0  0
   26.0840   13.7020   23.4570 C   0  0  0  0  0  0  0  0  0  0  0  0
   23.6060   13.2640   23.4520 C   0  0  0  0  0  0  0  0  0  0  0  0
   22.4710   13.7200   23.3750 O   0  0  0  0  0  0  0  0  0  0  0  0
   23.8510   11.9150   23.3490 N   0  0  0  0  0  0  0  0  0  0  0  0
   22.8230   10.9640   22.9490 C   0  0  3  0  0  0  0  0  0  0  0  0
   23.3590   10.0350   21.8480 C   0  0  0  0  0  0  0  0  0  0  0  0
   23.9030   10.7990   20.6690 C   0  0  0  0  0  0  0  0  0  0  0  0
   25.2250   10.6190   20.2660 C   0  0  0  0  0  0  0  0  0  0  0  0
   25.7380   11.3630   19.2150 C   0  0  0  0  0  0  0  0  0  0  0  0
   27.0080   11.1810   18.8520 F   0  0  0  0  0  0  0  0  0  0  0  0
   24.9660   12.2900   18.5460 C   0  0  0  0  0  0  0  0  0  0  0  0
   23.6550   12.4600   18.9380 C   0  0  0  0  0  0  0  0  0  0  0  0
   22.8920   13.3550   18.3110 F   0  0  0  0  0  0  0  0  0  0  0  0
   23.1140   11.7200   19.9780 C   0  0  0  0  0  0  0  0  0  0  0  0
   22.3290   10.2120   24.1930 C   0  0  3  0  0  0  0  0  0  0  0  0
   23.4310    9.7000   24.9440 O   0  0  0  0  0  0  0  0  0  0  0  0
   21.5320   11.1500   25.0990 C   0  0  0  0  0  0  0  0  0  0  0  0
   20.8940   10.3320   26.1830 N   0  3  0  0  0  0  0  0  0  0  0  0
   19.9690   11.1060   27.0670 C   0  0  0  0  0  0  0  0  0  0  0  0
   18.7610   11.6260   26.3350 C   0  0  0  0  0  0  0  0  0  0  0  0
   18.4570   12.9850   26.3350 C   0  0  0  0  0  0  0  0  0  0  0  0
   17.3730   13.4660   25.6100 C   0  0  0  0  0  0  0  0  0  0  0  0
   16.5800   12.5970   24.8690 C   0  0  0  0  0  0  0  0  0  0  0  0
   16.8580   11.2360   24.8640 C   0  0  0  0  0  0  0  0  0  0  0  0
   16.1790   10.2700   24.1780 O   0  0  0  0  0  0  0  0  0  0  0  0
   15.0860   10.7000   23.3840 C   0  0  0  0  0  0  0  0  0  0  0  0
   17.9340   10.7600   25.6130 C   0  0  0  0  0  0  0  0  0  0  0  0
   33.2130   13.0850   26.2500 H   0  0  0  0  0  0  0  0  0  0  0  0
   32.9200   12.5250   24.5940 H   0  0  0  0  0  0  0  0  0  0  0  0
   32.5250   11.4750   25.9700 H   0  0  0  0  0  0  0  0  0  0  0  0
   31.1750   14.1570   25.3490 H   0  0  0  0  0  0  0  0  0  0  0  0
   30.7850   13.1170   26.7130 H   0  0  0  0  0  0  0  0  0  0  0  0
   30.1010   11.2830   25.1170 H   0  0  0  0  0  0  0  0  0  0  0  0
   30.5100   12.3270   23.7600 H   0  0  0  0  0  0  0  0  0  0  0  0
   28.4720   12.3960   26.8310 H   0  0  0  0  0  0  0  0  0  0  0  0
   27.1000   13.1610   26.0570 H   0  0  0  0  0  0  0  0  0  0  0  0
   26.8400   11.0590   24.5940 H   0  0  0  0  0  0  0  0  0  0  0  0
   28.1000   10.3060   25.5540 H   0  0  0  0  0  0  0  0  0  0  0  0
   25.4360   11.3530   26.6370 H   0  0  0  0  0  0  0  0  0  0  0  0
   26.7240   10.6380   27.6290 H   0  0  0  0  0  0  0  0  0  0  0  0
   25.8940    9.6560   26.4100 H   0  0  0  0  0  0  0  0  0  0  0  0
   27.8010   16.3210   24.7790 H   0  0  0  0  0  0  0  0  0  0  0  0
   24.4780   17.9450   24.9690 H   0  0  0  0  0  0  0  0  0  0  0  0
   26.1910   18.2190   25.0540 H   0  0  0  0  0  0  0  0  0  0  0  0
   26.3220   17.0580   27.2670 H   0  0  0  0  0  0  0  0  0  0  0  0
   24.6100   16.6290   27.1590 H   0  0  0  0  0  0  0  0  0  0  0  0
   25.6880   19.2580   27.2360 H   0  0  0  0  0  0  0  0  0  0  0  0
   23.5560   15.6970   24.5280 H   0  0  0  0  0  0  0  0  0  0  0  0
   26.2940   12.7580   22.9650 H   0  0  0  0  0  0  0  0  0  0  0  0
   24.7600   11.5320   23.5710 H   0  0  0  0  0  0  0  0  0  0  0  0
   21.9700   11.5150   22.5320 H   0  0  0  0  0  0  0  0  0  0  0  0
   24.1460    9.3900   22.2590 H   0  0  0  0  0  0  0  0  0  0  0  0
   22.5630    9.3660   21.4980 H   0  0  0  0  0  0  0  0  0  0  0  0
   25.8770    9.9070   20.7630 H   0  0  0  0  0  0  0  0  0  0  0  0
   25.3790   12.8690   17.7290 H   0  0  0  0  0  0  0  0  0  0  0  0
   22.0750   11.8900   20.2440 H   0  0  0  0  0  0  0  0  0  0  0  0
   21.6980    9.3670   23.8900 H   0  0  0  0  0  0  0  0  0  0  0  0
   23.8410    8.9710   24.4420 H   0  0  0  0  0  0  0  0  0  0  0  0
   20.7350   11.6470   24.5400 H   0  0  0  0  0  0  0  0  0  0  0  0
   22.1660   11.8830   25.6070 H   0  0  0  0  0  0  0  0  0  0  0  0
   20.3970    9.5310   25.7800 H   0  0  0  0  0  0  0  0  0  0  0  0
   21.6590    9.9300   26.7440 H   0  0  0  0  0  0  0  0  0  0  0  0
   19.6570   10.4240   27.8640 H   0  0  0  0  0  0  0  0  0  0  0  0
   20.5600   11.9120   27.5160 H   0  0  0  0  0  0  0  0  0  0  0  0
   19.0660   13.6950   26.8920 H   0  0  0  0  0  0  0  0  0  0  0  0
   17.1500   14.5310   25.6130 H   0  0  0  0  0  0  0  0  0  0  0  0
   15.7510   13.0150   24.3070 H   0  0  0  0  0  0  0  0  0  0  0  0
   14.6570    9.8180   22.9000 H   0  0  0  0  0  0  0  0  0  0  0  0
   15.4140   11.3850   22.5950 H   0  0  0  0  0  0  0  0  0  0  0  0
   14.3030   11.1540   24.0000 H   0  0  0  0  0  0  0  0  0  0  0  0
   18.1160    9.6870   25.6110 H   0  0  0  0  0  0  0  0  0  0  0  0
  1  2  1  0  0  0  0
  1 45  1  0  0  0  0
  1 46  1  0  0  0  0
  1 47  1  0  0  0  0
  2  3  1  0  0  0  0
  2 48  1  0  0  0  0
  2 49  1  0  0  0  0
  3  4  1  0  0  0  0
  3 50  1  0  0  0  0
  3 51  1  0  0  0  0
  4  5  1  0  0  0  0
  4  8  1  0  0  0  0
  5  6  1  0  0  0  0
  5 52  1  0  0  0  0
  5 53  1  0  0  0  0
  6  7  1  0  0  0  0
  6 54  1  0  0  0  0
  6 55  1  0  0  0  0
  7 56  1  0  0  0  0
  7 57  1  0  0  0  0
  7 58  1  0  0  0  0
  8  9  2  0  0  0  0
  8 10  1  0  0  0  0
 10 11  1  0  0  0  0
 10 18  2  0  0  0  0
 11 12  2  0  0  0  0
 11 59  1  0  0  0  0
 12 13  1  0  0  0  0
 12 16  1  0  0  0  0
 13 14  1  0  0  0  0
 13 60  1  0  0  0  0
 13 61  1  0  0  0  0
 14 15  1  0  0  0  0
 14 62  1  0  0  0  0
 14 63  1  0  0  0  0
 15 64  1  0  0  0  0
 16 17  2  0  0  0  0
 16 65  1  0  0  0  0
 17 18  1  0  0  0  0
 17 19  1  0  0  0  0
 18 66  1  0  0  0  0
 19 20  2  0  0  0  0
 19 21  1  0  0  0  0
 21 22  1  0  0  0  0
 21 67  1  0  0  0  0
 22 23  1  0  0  0  0
 22 32  1  0  0  0  0
 22 68  1  0  0  0  0
 23 24  1  0  0  0  0
 23 69  1  0  0  0  0
 23 70  1  0  0  0  0
 24 25  1  0  0  0  0
 24 31  2  0  0  0  0
 25 26  2  0  0  0  0
 25 71  1  0  0  0  0
 26 27  1  0  0  0  0
 26 28  1  0  0  0  0
 28 29  2  0  0  0  0
 28 72  1  0  0  0  0
 29 30  1  0  0  0  0
 29 31  1  0  0  0  0
 31 73  1  0  0  0  0
 32 33  1  0  0  0  0
 32 34  1  0  0  0  0
 32 74  1  0  0  0  0
 33 75  1  0  0  0  0
 34 35  1  0  0  0  0
 34 76  1  0  0  0  0
 34 77  1  0  0  0  0
 35 36  1  0  0  0  0
 35 78  1  0  0  0  0
 35 79  1  0  0  0  0
 36 37  1  0  0  0  0
 36 80  1  0  0  0  0
 36 81  1  0  0  0  0
 37 38  1  0  0  0  0
 37 44  2  0  0  0  0
 38 39  2  0  0  0  0
 38 82  1  0  0  0  0
 39 40  1  0  0  0  0
 39 83  1  0  0  0  0
 40 41  2  0  0  0  0
 40 84  1  0  0  0  0
 41 42  1  0  0  0  0
 41 44  1  0  0  0  0
 42 43  1  0  0  0  0
 43 85  1  0  0  0  0
 43 86  1  0  0  0  0
 43 87  1  0  0  0  0
 44 88  1  0  0  0  0
M  CHG  1  35   1
M  END
>  <PARENT_CMPD_ID>
CHEMBL539465

>  <STANDARD_TYPE>
IC50

>  <RELATION>
=

>  <STANDARD_VALUE>
10

>  <STANDARD_UNITS>
nM

>  <COMPOUND_KEY>
1m

>  <PUBMED_ID>
19375914

>  <JOURNAL>
Bioorg. Med. Chem. Lett.

>  <YEAR>
2009

>  <VOLUME>
19

>  <FIRST_PAGE>
2654

>  <Company>
BMS

>  <idx>
393

>  <Model>
Valid

>  <target>
8

>  <des_pred_mlr>
7.4563498

>  <RF_Canvas>
7.70046

>  <DNN_Canvas>
7.2760901

>  <pred_CoMFA>
5.9387999

>  <pred_COMSIA>
7.1392002

>  <pred_abm5>
6.4435825

>  <pred_ff8>
1.7603256

>  <pred_gau6>
6.2859855

>  <CID>
BACE_393

>  <active>
1

>  <des_class_bayes>
1

>  <maacs_class_bayes>
1

>  <radial_class_bayes>
0

>  <dend_class_bayes>
1

>  <molprint_class_bayes>
0

>  <RF_canvas>
1

>  <DNN_canvas>
1

$$$$
CHEMBL539975
  MOE2015           3D

 87 90  0  0  1  0  0  0  0  0999 V2000
   22.6950   19.4690   26.2930 C   0  0  0  0  0  0  0  0  0  0  0  0
   23.9770   18.8880   26.4820 O   0  0  0  0  0  0  0  0  0  0  0  0
   24.0780   17.7590   25.6570 N   0  0  0  0  0  0  0  0  0  0  0  0
   25.2780   17.2580   25.6860 C   0  0  0  0  0  0  0  0  0  0  0  0
   26.4070   17.8330   26.4980 C   0  0  0  0  0  0  0  0  0  0  0  0
   25.5500   16.0680   24.8490 C   0  0  0  0  0  0  0  0  0  0  0  0
   26.7640   15.9130   24.1870 C   0  0  0  0  0  0  0  0  0  0  0  0
   26.9190   14.9200   23.2170 C   0  0  0  0  0  0  0  0  0  0  0  0
   25.8980   13.9810   23.0530 C   0  0  0  0  0  0  0  0  0  0  0  0
   24.7030   14.1160   23.7550 C   0  0  0  0  0  0  0  0  0  0  0  0
   24.5140   15.1740   24.6260 C   0  0  0  0  0  0  0  0  0  0  0  0
   23.5580   13.2320   23.4840 C   0  0  0  0  0  0  0  0  0  0  0  0
   22.4180   13.6730   23.4150 O   0  0  0  0  0  0  0  0  0  0  0  0
   23.8530   11.9010   23.3510 N   0  0  0  0  0  0  0  0  0  0  0  0
   22.8390   10.9320   22.9550 C   0  0  3  0  0  0  0  0  0  0  0  0
   23.3900   10.0100   21.8570 C   0  0  0  0  0  0  0  0  0  0  0  0
   23.9120   10.7810   20.6710 C   0  0  0  0  0  0  0  0  0  0  0  0
   25.2270   10.6040   20.2450 C   0  0  0  0  0  0  0  0  0  0  0  0
   25.7200   11.3530   19.1880 C   0  0  0  0  0  0  0  0  0  0  0  0
   26.9770   11.1650   18.7910 F   0  0  0  0  0  0  0  0  0  0  0  0
   24.9390   12.2870   18.5410 C   0  0  0  0  0  0  0  0  0  0  0  0
   23.6350   12.4540   18.9550 C   0  0  0  0  0  0  0  0  0  0  0  0
   22.8620   13.3490   18.3410 F   0  0  0  0  0  0  0  0  0  0  0  0
   23.1110   11.7050   19.9970 C   0  0  0  0  0  0  0  0  0  0  0  0
   22.3380   10.1850   24.2000 C   0  0  1  0  0  0  0  0  0  0  0  0
   23.4430    9.6950   24.9600 O   0  0  0  0  0  0  0  0  0  0  0  0
   21.5110   11.1120   25.0910 C   0  0  0  0  0  0  0  0  0  0  0  0
   20.8780   10.2950   26.1780 N   0  3  0  0  0  0  0  0  0  0  0  0
   19.9490   11.0590   27.0660 C   0  0  0  0  0  0  0  0  0  0  0  0
   18.7500   11.5970   26.3340 C   0  0  0  0  0  0  0  0  0  0  0  0
   18.4640   12.9610   26.3360 C   0  0  0  0  0  0  0  0  0  0  0  0
   17.3850   13.4540   25.6110 C   0  0  0  0  0  0  0  0  0  0  0  0
   16.5830   12.5960   24.8670 C   0  0  0  0  0  0  0  0  0  0  0  0
   16.8470   11.2320   24.8570 C   0  0  0  0  0  0  0  0  0  0  0  0
   16.1610   10.2760   24.1670 O   0  0  0  0  0  0  0  0  0  0  0  0
   15.0830   10.7200   23.3610 C   0  0  0  0  0  0  0  0  0  0  0  0
   17.9160   10.7420   25.6070 C   0  0  0  0  0  0  0  0  0  0  0  0
   28.0060   14.9250   22.2510 N   0  0  0  0  0  0  0  0  0  0  0  0
   28.6820   13.6840   22.0410 C   0  0  0  0  0  0  0  0  0  0  0  0
   28.7300   13.1530   20.7610 C   0  0  0  0  0  0  0  0  0  0  0  0
   29.3790   11.9440   20.5310 C   0  0  0  0  0  0  0  0  0  0  0  0
   29.9580   11.2530   21.5800 C   0  0  0  0  0  0  0  0  0  0  0  0
   29.9310   11.7940   22.8550 C   0  0  0  0  0  0  0  0  0  0  0  0
   29.3110   13.0200   23.0850 C   0  0  0  0  0  0  0  0  0  0  0  0
   28.9560   16.3280   22.0350 S   0  0  0  0  0  0  0  0  0  0  0  0
   28.1250   17.5100   22.1830 O   0  0  0  0  0  0  0  0  0  0  0  0
   30.1740   16.1910   22.8100 O   0  0  0  0  0  0  0  0  0  0  0  0
   29.3300   16.2610   20.2970 C   0  0  0  0  0  0  0  0  0  0  0  0
   22.6160   20.3500   26.9370 H   0  0  0  0  0  0  0  0  0  0  0  0
   21.9110   18.7580   26.5710 H   0  0  0  0  0  0  0  0  0  0  0  0
   22.5690   19.7820   25.2520 H   0  0  0  0  0  0  0  0  0  0  0  0
   27.2440   17.1360   26.5890 H   0  0  0  0  0  0  0  0  0  0  0  0
   26.0650   18.0540   27.5140 H   0  0  0  0  0  0  0  0  0  0  0  0
   26.7570   18.7560   26.0280 H   0  0  0  0  0  0  0  0  0  0  0  0
   27.5470   16.6470   24.3520 H   0  0  0  0  0  0  0  0  0  0  0  0
   25.9830   13.2190   22.2820 H   0  0  0  0  0  0  0  0  0  0  0  0
   23.5510   15.3120   25.1140 H   0  0  0  0  0  0  0  0  0  0  0  0
   24.7910   11.5630   23.5400 H   0  0  0  0  0  0  0  0  0  0  0  0
   21.9820   11.4710   22.5320 H   0  0  0  0  0  0  0  0  0  0  0  0
   24.1920    9.3840   22.2690 H   0  0  0  0  0  0  0  0  0  0  0  0
   22.6060    9.3240   21.5120 H   0  0  0  0  0  0  0  0  0  0  0  0
   25.8880    9.8900   20.7270 H   0  0  0  0  0  0  0  0  0  0  0  0
   25.3380   12.8700   17.7200 H   0  0  0  0  0  0  0  0  0  0  0  0
   22.0750   11.8730   20.2790 H   0  0  0  0  0  0  0  0  0  0  0  0
   21.7240    9.3280   23.8960 H   0  0  0  0  0  0  0  0  0  0  0  0
   23.8400    8.9420   24.4850 H   0  0  0  0  0  0  0  0  0  0  0  0
   20.7100   11.5880   24.5200 H   0  0  0  0  0  0  0  0  0  0  0  0
   22.1250   11.8620   25.5990 H   0  0  0  0  0  0  0  0  0  0  0  0
   20.3820    9.4910   25.7770 H   0  0  0  0  0  0  0  0  0  0  0  0
   21.6510    9.8990   26.7330 H   0  0  0  0  0  0  0  0  0  0  0  0
   19.6270   10.3660   27.8510 H   0  0  0  0  0  0  0  0  0  0  0  0
   20.5390   11.8550   27.5320 H   0  0  0  0  0  0  0  0  0  0  0  0
   19.0820   13.6620   26.8940 H   0  0  0  0  0  0  0  0  0  0  0  0
   17.1700   14.5210   25.6170 H   0  0  0  0  0  0  0  0  0  0  0  0
   15.7590   13.0250   24.3050 H   0  0  0  0  0  0  0  0  0  0  0  0
   14.6480    9.8440   22.8690 H   0  0  0  0  0  0  0  0  0  0  0  0
   15.4280   11.4030   22.5780 H   0  0  0  0  0  0  0  0  0  0  0  0
   14.2980   11.1820   23.9690 H   0  0  0  0  0  0  0  0  0  0  0  0
   18.0880    9.6680   25.6020 H   0  0  0  0  0  0  0  0  0  0  0  0
   28.2380   13.6500   19.9290 H   0  0  0  0  0  0  0  0  0  0  0  0
   29.4070   11.5270   19.5270 H   0  0  0  0  0  0  0  0  0  0  0  0
   30.4500   10.3010   21.4010 H   0  0  0  0  0  0  0  0  0  0  0  0
   30.4120   11.2700   23.6780 H   0  0  0  0  0  0  0  0  0  0  0  0
   29.3160   13.4410   24.0860 H   0  0  0  0  0  0  0  0  0  0  0  0
   28.4040   16.1390   19.7320 H   0  0  0  0  0  0  0  0  0  0  0  0
   30.0400   15.4580   20.0990 H   0  0  0  0  0  0  0  0  0  0  0  0
   29.7930   17.2130   20.0240 H   0  0  0  0  0  0  0  0  0  0  0  0
  1  2  1  0  0  0  0
  1 49  1  0  0  0  0
  1 50  1  0  0  0  0
  1 51  1  0  0  0  0
  2  3  1  0  0  0  0
  3  4  2  0  0  0  0
  4  5  1  0  0  0  0
  4  6  1  0  0  0  0
  5 52  1  0  0  0  0
  5 53  1  0  0  0  0
  5 54  1  0  0  0  0
  6  7  1  0  0  0  0
  6 11  2  0  0  0  0
  7  8  2  0  0  0  0
  7 55  1  0  0  0  0
  8  9  1  0  0  0  0
  8 38  1  0  0  0  0
  9 10  2  0  0  0  0
  9 56  1  0  0  0  0
 10 11  1  0  0  0  0
 10 12  1  0  0  0  0
 11 57  1  0  0  0  0
 12 13  2  0  0  0  0
 12 14  1  0  0  0  0
 14 15  1  0  0  0  0
 14 58  1  0  0  0  0
 15 16  1  0  0  0  0
 15 25  1  0  0  0  0
 15 59  1  0  0  0  0
 16 17  1  0  0  0  0
 16 60  1  0  0  0  0
 16 61  1  0  0  0  0
 17 18  2  0  0  0  0
 17 24  1  0  0  0  0
 18 19  1  0  0  0  0
 18 62  1  0  0  0  0
 19 20  1  0  0  0  0
 19 21  2  0  0  0  0
 21 22  1  0  0  0  0
 21 63  1  0  0  0  0
 22 23  1  0  0  0  0
 22 24  2  0  0  0  0
 24 64  1  0  0  0  0
 25 26  1  0  0  0  0
 25 27  1  0  0  0  0
 25 65  1  0  0  0  0
 26 66  1  0  0  0  0
 27 28  1  0  0  0  0
 27 67  1  0  0  0  0
 27 68  1  0  0  0  0
 28 29  1  0  0  0  0
 28 69  1  0  0  0  0
 28 70  1  0  0  0  0
 29 30  1  0  0  0  0
 29 71  1  0  0  0  0
 29 72  1  0  0  0  0
 30 31  1  0  0  0  0
 30 37  2  0  0  0  0
 31 32  2  0  0  0  0
 31 73  1  0  0  0  0
 32 33  1  0  0  0  0
 32 74  1  0  0  0  0
 33 34  2  0  0  0  0
 33 75  1  0  0  0  0
 34 35  1  0  0  0  0
 34 37  1  0  0  0  0
 35 36  1  0  0  0  0
 36 76  1  0  0  0  0
 36 77  1  0  0  0  0
 36 78  1  0  0  0  0
 37 79  1  0  0  0  0
 38 39  1  0  0  0  0
 38 45  1  0  0  0  0
 39 40  1  0  0  0  0
 39 44  2  0  0  0  0
 40 41  2  0  0  0  0
 40 80  1  0  0  0  0
 41 42  1  0  0  0  0
 41 81  1  0  0  0  0
 42 43  2  0  0  0  0
 42 82  1  0  0  0  0
 43 44  1  0  0  0  0
 43 83  1  0  0  0  0
 44 84  1  0  0  0  0
 45 46  2  0  0  0  0
 45 47  2  0  0  0  0
 45 48  1  0  0  0  0
 48 85  1  0  0  0  0
 48 86  1  0  0  0  0
 48 87  1  0  0  0  0
M  CHG  1  28   1
M  END
>  <PARENT_CMPD_ID>
CHEMBL539975

>  <STANDARD_TYPE>
IC50

>  <RELATION>
=

>  <STANDARD_VALUE>
10

>  <STANDARD_UNITS>
nM

>  <COMPOUND_KEY>
6e

>  <PUBMED_ID>
19375914

>  <JOURNAL>
Bioorg. Med. Chem. Lett.

>  <YEAR>
2009

>  <VOLUME>
19

>  <FIRST_PAGE>
2654

>  <Company>
BMS

>  <idx>
394

>  <Model>
Valid

>  <target>
8

>  <des_pred_mlr>
7.8337998

>  <RF_Canvas>
7.645484

>  <DNN_Canvas>
7.9511714

>  <pred_CoMFA>
7.0749998

>  <pred_COMSIA>
8.4320002

>  <pred_abm5>
6.9515133

>  <pred_ff8>
6.8579717

>  <pred_gau6>
7.3798637

>  <CID>
BACE_394

>  <active>
1

>  <des_class_bayes>
1

>  <maacs_class_bayes>
0

>  <radial_class_bayes>
1

>  <dend_class_bayes>
1

>  <molprint_class_bayes>
1

>  <RF_canvas>
1

>  <DNN_canvas>
1

$$$$
CHEMBL539976
  MOE2015           3D

 92 95  0  0  1  0  0  0  0  0999 V2000
   29.8080   10.8160   22.4160 C   0  0  0  0  0  0  0  0  0  0  0  0
   29.9010   11.7300   21.2110 C   0  0  0  0  0  0  0  0  0  0  0  0
   28.6580   12.5860   21.0690 C   0  0  0  0  0  0  0  0  0  0  0  0
   28.7640   13.8600   21.7480 N   0  0  0  0  0  0  0  0  0  0  0  0
   29.2260   15.0030   20.9960 C   0  0  0  0  0  0  0  0  0  0  0  0
   28.1420   15.5810   20.1120 C   0  0  0  0  0  0  0  0  0  0  0  0
   28.6100   16.8850   19.5080 C   0  0  0  0  0  0  0  0  0  0  0  0
   28.5410   14.0230   23.1000 C   0  0  0  0  0  0  0  0  0  0  0  0
   29.4220   13.9400   23.9460 O   0  0  0  0  0  0  0  0  0  0  0  0
   27.1930   14.4600   23.4940 C   0  0  0  0  0  0  0  0  0  0  0  0
   27.0670   15.6570   24.1770 C   0  0  0  0  0  0  0  0  0  0  0  0
   25.8140   16.0800   24.5880 C   0  0  0  0  0  0  0  0  0  0  0  0
   25.7640   17.3230   25.1520 O   0  0  0  0  0  0  0  0  0  0  0  0
   24.9880   17.4730   26.2650 C   0  0  0  0  0  0  0  0  0  0  0  0
   25.0860   16.6220   27.3670 C   0  0  0  0  0  0  0  0  0  0  0  0
   24.2850   16.8470   28.4860 C   0  0  0  0  0  0  0  0  0  0  0  0
   23.4000   17.9270   28.5080 C   0  0  0  0  0  0  0  0  0  0  0  0
   23.3260   18.7910   27.4160 C   0  0  0  0  0  0  0  0  0  0  0  0
   24.1270   18.5680   26.2950 C   0  0  0  0  0  0  0  0  0  0  0  0
   24.6810   15.3080   24.3460 C   0  0  0  0  0  0  0  0  0  0  0  0
   24.8180   14.0910   23.6940 C   0  0  0  0  0  0  0  0  0  0  0  0
   26.0730   13.6810   23.2390 C   0  0  0  0  0  0  0  0  0  0  0  0
   23.6140   13.2540   23.4670 C   0  0  0  0  0  0  0  0  0  0  0  0
   22.4850   13.7220   23.3980 O   0  0  0  0  0  0  0  0  0  0  0  0
   23.8480   11.9030   23.3650 N   0  0  0  0  0  0  0  0  0  0  0  0
   22.8170   10.9570   22.9620 C   0  0  3  0  0  0  0  0  0  0  0  0
   23.3500   10.0310   21.8560 C   0  0  0  0  0  0  0  0  0  0  0  0
   23.8930   10.7950   20.6750 C   0  0  0  0  0  0  0  0  0  0  0  0
   23.1110   11.7320   19.9960 C   0  0  0  0  0  0  0  0  0  0  0  0
   23.6520   12.4670   18.9530 C   0  0  0  0  0  0  0  0  0  0  0  0
   22.8950   13.3730   18.3340 F   0  0  0  0  0  0  0  0  0  0  0  0
   24.9570   12.2810   18.5490 C   0  0  0  0  0  0  0  0  0  0  0  0
   25.7190   11.3370   19.2030 C   0  0  0  0  0  0  0  0  0  0  0  0
   26.9830   11.1370   18.8260 F   0  0  0  0  0  0  0  0  0  0  0  0
   25.2060   10.5960   20.2560 C   0  0  0  0  0  0  0  0  0  0  0  0
   22.3260   10.2030   24.2040 C   0  0  3  0  0  0  0  0  0  0  0  0
   23.4320    9.7010   24.9570 O   0  0  0  0  0  0  0  0  0  0  0  0
   21.5200   11.1360   25.1050 C   0  0  0  0  0  0  0  0  0  0  0  0
   20.8860   10.3170   26.1900 N   0  3  0  0  0  0  0  0  0  0  0  0
   19.9560   11.0850   27.0740 C   0  0  0  0  0  0  0  0  0  0  0  0
   18.7540   11.6130   26.3390 C   0  0  0  0  0  0  0  0  0  0  0  0
   18.4620   12.9760   26.3340 C   0  0  0  0  0  0  0  0  0  0  0  0
   17.3820   13.4620   25.6080 C   0  0  0  0  0  0  0  0  0  0  0  0
   16.5830   12.5980   24.8670 C   0  0  0  0  0  0  0  0  0  0  0  0
   16.8520   11.2350   24.8640 C   0  0  0  0  0  0  0  0  0  0  0  0
   16.1690   10.2730   24.1760 O   0  0  0  0  0  0  0  0  0  0  0  0
   15.0850   10.7090   23.3760 C   0  0  0  0  0  0  0  0  0  0  0  0
   17.9230   10.7520   25.6150 C   0  0  0  0  0  0  0  0  0  0  0  0
   30.6980   10.1810   22.4730 H   0  0  0  0  0  0  0  0  0  0  0  0
   28.9350   10.1590   22.3490 H   0  0  0  0  0  0  0  0  0  0  0  0
   29.7420   11.3790   23.3500 H   0  0  0  0  0  0  0  0  0  0  0  0
   29.9950   11.0960   20.3220 H   0  0  0  0  0  0  0  0  0  0  0  0
   30.8080   12.3410   21.2680 H   0  0  0  0  0  0  0  0  0  0  0  0
   27.7910   12.0460   21.4550 H   0  0  0  0  0  0  0  0  0  0  0  0
   28.4710   12.7810   20.0080 H   0  0  0  0  0  0  0  0  0  0  0  0
   29.5670   15.7690   21.7050 H   0  0  0  0  0  0  0  0  0  0  0  0
   30.0990   14.7030   20.4050 H   0  0  0  0  0  0  0  0  0  0  0  0
   27.8760   14.8810   19.3120 H   0  0  0  0  0  0  0  0  0  0  0  0
   27.2270   15.7600   20.6890 H   0  0  0  0  0  0  0  0  0  0  0  0
   29.5110   16.7410   18.9040 H   0  0  0  0  0  0  0  0  0  0  0  0
   28.8310   17.6260   20.2840 H   0  0  0  0  0  0  0  0  0  0  0  0
   27.8330   17.3030   18.8590 H   0  0  0  0  0  0  0  0  0  0  0  0
   27.9420   16.2720   24.3770 H   0  0  0  0  0  0  0  0  0  0  0  0
   25.7890   15.7940   27.3710 H   0  0  0  0  0  0  0  0  0  0  0  0
   24.3580   16.1880   29.3470 H   0  0  0  0  0  0  0  0  0  0  0  0
   22.7780   18.1000   29.3820 H   0  0  0  0  0  0  0  0  0  0  0  0
   22.6490   19.6410   27.4400 H   0  0  0  0  0  0  0  0  0  0  0  0
   24.0740   19.2480   25.4490 H   0  0  0  0  0  0  0  0  0  0  0  0
   23.6970   15.6570   24.6500 H   0  0  0  0  0  0  0  0  0  0  0  0
   26.1860   12.7560   22.6860 H   0  0  0  0  0  0  0  0  0  0  0  0
   24.7570   11.5190   23.5960 H   0  0  0  0  0  0  0  0  0  0  0  0
   21.9660   11.5130   22.5490 H   0  0  0  0  0  0  0  0  0  0  0  0
   24.1370    9.3840   22.2630 H   0  0  0  0  0  0  0  0  0  0  0  0
   22.5520    9.3650   21.5060 H   0  0  0  0  0  0  0  0  0  0  0  0
   22.0780   11.9180   20.2750 H   0  0  0  0  0  0  0  0  0  0  0  0
   25.3720   12.8600   17.7330 H   0  0  0  0  0  0  0  0  0  0  0  0
   25.8510    9.8700   20.7430 H   0  0  0  0  0  0  0  0  0  0  0  0
   21.7020    9.3530   23.9020 H   0  0  0  0  0  0  0  0  0  0  0  0
   23.8580    8.9850   24.4520 H   0  0  0  0  0  0  0  0  0  0  0  0
   20.7210   11.6260   24.5430 H   0  0  0  0  0  0  0  0  0  0  0  0
   22.1460   11.8760   25.6130 H   0  0  0  0  0  0  0  0  0  0  0  0
   20.3910    9.5130   25.7890 H   0  0  0  0  0  0  0  0  0  0  0  0
   21.6570    9.9220   26.7480 H   0  0  0  0  0  0  0  0  0  0  0  0
   19.6370   10.3960   27.8640 H   0  0  0  0  0  0  0  0  0  0  0  0
   20.5440   11.8860   27.5340 H   0  0  0  0  0  0  0  0  0  0  0  0
   19.0790   13.6820   26.8880 H   0  0  0  0  0  0  0  0  0  0  0  0
   17.1640   14.5280   25.6080 H   0  0  0  0  0  0  0  0  0  0  0  0
   15.7570   13.0200   24.3040 H   0  0  0  0  0  0  0  0  0  0  0  0
   14.6520    9.8300   22.8890 H   0  0  0  0  0  0  0  0  0  0  0  0
   15.4220   11.3920   22.5880 H   0  0  0  0  0  0  0  0  0  0  0  0
   14.3010   11.1690   23.9870 H   0  0  0  0  0  0  0  0  0  0  0  0
   18.0990    9.6790   25.6150 H   0  0  0  0  0  0  0  0  0  0  0  0
  1  2  1  0  0  0  0
  1 49  1  0  0  0  0
  1 50  1  0  0  0  0
  1 51  1  0  0  0  0
  2  3  1  0  0  0  0
  2 52  1  0  0  0  0
  2 53  1  0  0  0  0
  3  4  1  0  0  0  0
  3 54  1  0  0  0  0
  3 55  1  0  0  0  0
  4  5  1  0  0  0  0
  4  8  1  0  0  0  0
  5  6  1  0  0  0  0
  5 56  1  0  0  0  0
  5 57  1  0  0  0  0
  6  7  1  0  0  0  0
  6 58  1  0  0  0  0
  6 59  1  0  0  0  0
  7 60  1  0  0  0  0
  7 61  1  0  0  0  0
  7 62  1  0  0  0  0
  8  9  2  0  0  0  0
  8 10  1  0  0  0  0
 10 11  1  0  0  0  0
 10 22  2  0  0  0  0
 11 12  2  0  0  0  0
 11 63  1  0  0  0  0
 12 13  1  0  0  0  0
 12 20  1  0  0  0  0
 13 14  1  0  0  0  0
 14 15  1  0  0  0  0
 14 19  2  0  0  0  0
 15 16  2  0  0  0  0
 15 64  1  0  0  0  0
 16 17  1  0  0  0  0
 16 65  1  0  0  0  0
 17 18  2  0  0  0  0
 17 66  1  0  0  0  0
 18 19  1  0  0  0  0
 18 67  1  0  0  0  0
 19 68  1  0  0  0  0
 20 21  2  0  0  0  0
 20 69  1  0  0  0  0
 21 22  1  0  0  0  0
 21 23  1  0  0  0  0
 22 70  1  0  0  0  0
 23 24  2  0  0  0  0
 23 25  1  0  0  0  0
 25 26  1  0  0  0  0
 25 71  1  0  0  0  0
 26 27  1  0  0  0  0
 26 36  1  0  0  0  0
 26 72  1  0  0  0  0
 27 28  1  0  0  0  0
 27 73  1  0  0  0  0
 27 74  1  0  0  0  0
 28 29  1  0  0  0  0
 28 35  2  0  0  0  0
 29 30  2  0  0  0  0
 29 75  1  0  0  0  0
 30 31  1  0  0  0  0
 30 32  1  0  0  0  0
 32 33  2  0  0  0  0
 32 76  1  0  0  0  0
 33 34  1  0  0  0  0
 33 35  1  0  0  0  0
 35 77  1  0  0  0  0
 36 37  1  0  0  0  0
 36 38  1  0  0  0  0
 36 78  1  0  0  0  0
 37 79  1  0  0  0  0
 38 39  1  0  0  0  0
 38 80  1  0  0  0  0
 38 81  1  0  0  0  0
 39 40  1  0  0  0  0
 39 82  1  0  0  0  0
 39 83  1  0  0  0  0
 40 41  1  0  0  0  0
 40 84  1  0  0  0  0
 40 85  1  0  0  0  0
 41 42  1  0  0  0  0
 41 48  2  0  0  0  0
 42 43  2  0  0  0  0
 42 86  1  0  0  0  0
 43 44  1  0  0  0  0
 43 87  1  0  0  0  0
 44 45  2  0  0  0  0
 44 88  1  0  0  0  0
 45 46  1  0  0  0  0
 45 48  1  0  0  0  0
 46 47  1  0  0  0  0
 47 89  1  0  0  0  0
 47 90  1  0  0  0  0
 47 91  1  0  0  0  0
 48 92  1  0  0  0  0
M  CHG  1  39   1
M  END
>  <PARENT_CMPD_ID>
CHEMBL539976

>  <STANDARD_TYPE>
IC50

>  <RELATION>
=

>  <STANDARD_VALUE>
10

>  <STANDARD_UNITS>
nM

>  <COMPOUND_KEY>
7a

>  <PUBMED_ID>
19375914

>  <JOURNAL>
Bioorg. Med. Chem. Lett.

>  <YEAR>
2009

>  <VOLUME>
19

>  <FIRST_PAGE>
2654

>  <Company>
BMS

>  <idx>
395

>  <Model>
Valid

>  <target>
8

>  <des_pred_mlr>
8.0590296

>  <RF_Canvas>
7.4645867

>  <DNN_Canvas>
7.4303813

>  <pred_CoMFA>
7.0925002

>  <pred_COMSIA>
8.7565002

>  <pred_abm5>
7.3122482

>  <pred_ff8>
6.7137847

>  <pred_gau6>
7.4657388

>  <CID>
BACE_395

>  <active>
1

>  <des_class_bayes>
1

>  <maacs_class_bayes>
1

>  <radial_class_bayes>
1

>  <dend_class_bayes>
1

>  <molprint_class_bayes>
1

>  <RF_canvas>
1

>  <DNN_canvas>
1

$$$$
CHEMBL539654
  MOE2015           3D

 96 99  0  0  1  0  0  0  0  0999 V2000
   26.6540   15.2820   19.9160 C   0  0  0  0  0  0  0  0  0  0  0  0
   28.1500   15.2600   19.6920 C   0  0  0  0  0  0  0  0  0  0  0  0
   28.9200   15.2290   20.9930 C   0  0  0  0  0  0  0  0  0  0  0  0
   28.6860   14.0720   21.8420 N   0  0  0  0  0  0  0  0  0  0  0  0
   28.8450   12.7270   21.3420 C   0  0  0  0  0  0  0  0  0  0  0  0
   30.2920   12.3150   21.2340 C   0  0  0  0  0  0  0  0  0  0  0  0
   30.3800   10.8410   20.9080 C   0  0  0  0  0  0  0  0  0  0  0  0
   28.4750   14.2460   23.1960 C   0  0  0  0  0  0  0  0  0  0  0  0
   29.3460   14.0680   24.0360 O   0  0  0  0  0  0  0  0  0  0  0  0
   27.1080   14.6240   23.5890 C   0  0  0  0  0  0  0  0  0  0  0  0
   26.9020   15.8030   24.2860 C   0  0  0  0  0  0  0  0  0  0  0  0
   25.6080   16.1380   24.6620 C   0  0  0  0  0  0  0  0  0  0  0  0
   25.3140   17.3350   25.2450 O   0  0  0  0  0  0  0  0  0  0  0  0
   25.9400   17.6180   26.4270 C   0  0  0  0  0  0  0  0  0  0  0  0
   26.1210   16.6840   27.4460 C   0  0  0  0  0  0  0  0  0  0  0  0
   26.7330   17.0730   28.6390 C   0  0  0  0  0  0  0  0  0  0  0  0
   27.1550   18.3920   28.8300 C   0  0  0  0  0  0  0  0  0  0  0  0
   27.7340   18.6370   30.0450 O   0  0  0  0  0  0  0  0  0  0  0  0
   28.1890   19.9630   30.2860 C   0  0  0  0  0  0  0  0  0  0  0  0
   26.9550   19.3260   27.8120 C   0  0  0  0  0  0  0  0  0  0  0  0
   26.3410   18.9390   26.6160 C   0  0  0  0  0  0  0  0  0  0  0  0
   24.5360   15.3090   24.3760 C   0  0  0  0  0  0  0  0  0  0  0  0
   24.7560   14.1110   23.7160 C   0  0  0  0  0  0  0  0  0  0  0  0
   26.0430   13.7750   23.2980 C   0  0  0  0  0  0  0  0  0  0  0  0
   23.5890   13.2410   23.4570 C   0  0  0  0  0  0  0  0  0  0  0  0
   22.4520   13.6920   23.3840 O   0  0  0  0  0  0  0  0  0  0  0  0
   23.8530   11.8990   23.3500 N   0  0  0  0  0  0  0  0  0  0  0  0
   22.8310   10.9420   22.9510 C   0  0  3  0  0  0  0  0  0  0  0  0
   23.3730   10.0150   21.8520 C   0  0  0  0  0  0  0  0  0  0  0  0
   23.9140   10.7820   20.6720 C   0  0  0  0  0  0  0  0  0  0  0  0
   23.1260   11.7100   19.9880 C   0  0  0  0  0  0  0  0  0  0  0  0
   23.6630   12.4450   18.9440 C   0  0  0  0  0  0  0  0  0  0  0  0
   22.9010   13.3460   18.3230 F   0  0  0  0  0  0  0  0  0  0  0  0
   24.9700   12.2660   18.5410 C   0  0  0  0  0  0  0  0  0  0  0  0
   25.7420   11.3370   19.2060 C   0  0  0  0  0  0  0  0  0  0  0  0
   27.0090   11.1510   18.8360 F   0  0  0  0  0  0  0  0  0  0  0  0
   25.2330   10.5970   20.2610 C   0  0  0  0  0  0  0  0  0  0  0  0
   22.3360   10.1960   24.1990 C   0  0  3  0  0  0  0  0  0  0  0  0
   23.4400    9.7020   24.9580 O   0  0  0  0  0  0  0  0  0  0  0  0
   21.5250   11.1330   25.0940 C   0  0  0  0  0  0  0  0  0  0  0  0
   20.8890   10.3170   26.1800 N   0  3  0  0  0  0  0  0  0  0  0  0
   19.9610   11.0850   27.0660 C   0  0  0  0  0  0  0  0  0  0  0  0
   18.7580   11.6140   26.3340 C   0  0  0  0  0  0  0  0  0  0  0  0
   18.4640   12.9760   26.3330 C   0  0  0  0  0  0  0  0  0  0  0  0
   17.3820   13.4630   25.6100 C   0  0  0  0  0  0  0  0  0  0  0  0
   16.5830   12.5990   24.8680 C   0  0  0  0  0  0  0  0  0  0  0  0
   16.8540   11.2360   24.8620 C   0  0  0  0  0  0  0  0  0  0  0  0
   16.1700   10.2750   24.1740 O   0  0  0  0  0  0  0  0  0  0  0  0
   15.0850   10.7120   23.3750 C   0  0  0  0  0  0  0  0  0  0  0  0
   17.9270   10.7530   25.6100 C   0  0  0  0  0  0  0  0  0  0  0  0
   26.1320   15.3860   18.9600 H   0  0  0  0  0  0  0  0  0  0  0  0
   26.3610   16.1240   20.5520 H   0  0  0  0  0  0  0  0  0  0  0  0
   26.3040   14.3590   20.3850 H   0  0  0  0  0  0  0  0  0  0  0  0
   28.4360   16.1600   19.1350 H   0  0  0  0  0  0  0  0  0  0  0  0
   28.4140   14.4080   19.0560 H   0  0  0  0  0  0  0  0  0  0  0  0
   28.7140   16.1390   21.5700 H   0  0  0  0  0  0  0  0  0  0  0  0
   29.9950   15.2470   20.7750 H   0  0  0  0  0  0  0  0  0  0  0  0
   28.3360   12.0470   22.0360 H   0  0  0  0  0  0  0  0  0  0  0  0
   28.3340   12.6340   20.3810 H   0  0  0  0  0  0  0  0  0  0  0  0
   30.7990   12.8980   20.4580 H   0  0  0  0  0  0  0  0  0  0  0  0
   30.8220   12.5080   22.1740 H   0  0  0  0  0  0  0  0  0  0  0  0
   29.8760   10.6140   19.9620 H   0  0  0  0  0  0  0  0  0  0  0  0
   29.9240   10.2300   21.6940 H   0  0  0  0  0  0  0  0  0  0  0  0
   31.4270   10.5360   20.8120 H   0  0  0  0  0  0  0  0  0  0  0  0
   27.7340   16.4660   24.5050 H   0  0  0  0  0  0  0  0  0  0  0  0
   25.7850   15.6570   27.3360 H   0  0  0  0  0  0  0  0  0  0  0  0
   26.8790   16.3450   29.4340 H   0  0  0  0  0  0  0  0  0  0  0  0
   28.6290   19.9880   31.2870 H   0  0  0  0  0  0  0  0  0  0  0  0
   27.3580   20.6740   30.2690 H   0  0  0  0  0  0  0  0  0  0  0  0
   28.9690   20.2480   29.5720 H   0  0  0  0  0  0  0  0  0  0  0  0
   27.2590   20.3630   27.9170 H   0  0  0  0  0  0  0  0  0  0  0  0
   26.1790   19.6750   25.8320 H   0  0  0  0  0  0  0  0  0  0  0  0
   23.5310   15.6050   24.6700 H   0  0  0  0  0  0  0  0  0  0  0  0
   26.2260   12.8660   22.7350 H   0  0  0  0  0  0  0  0  0  0  0  0
   24.7730   11.5350   23.5690 H   0  0  0  0  0  0  0  0  0  0  0  0
   21.9760   11.4870   22.5320 H   0  0  0  0  0  0  0  0  0  0  0  0
   24.1640    9.3750   22.2640 H   0  0  0  0  0  0  0  0  0  0  0  0
   22.5810    9.3430   21.5010 H   0  0  0  0  0  0  0  0  0  0  0  0
   22.0900   11.8870   20.2630 H   0  0  0  0  0  0  0  0  0  0  0  0
   25.3810   12.8450   17.7230 H   0  0  0  0  0  0  0  0  0  0  0  0
   25.8840    9.8820   20.7550 H   0  0  0  0  0  0  0  0  0  0  0  0
   21.7150    9.3430   23.9000 H   0  0  0  0  0  0  0  0  0  0  0  0
   23.8740    8.9870   24.4560 H   0  0  0  0  0  0  0  0  0  0  0  0
   20.7260   11.6190   24.5280 H   0  0  0  0  0  0  0  0  0  0  0  0
   22.1500   11.8750   25.6010 H   0  0  0  0  0  0  0  0  0  0  0  0
   20.3910    9.5150   25.7780 H   0  0  0  0  0  0  0  0  0  0  0  0
   21.6590    9.9150   26.7370 H   0  0  0  0  0  0  0  0  0  0  0  0
   19.6440   10.3960   27.8570 H   0  0  0  0  0  0  0  0  0  0  0  0
   20.5510   11.8850   27.5250 H   0  0  0  0  0  0  0  0  0  0  0  0
   19.0800   13.6810   26.8880 H   0  0  0  0  0  0  0  0  0  0  0  0
   17.1630   14.5290   25.6130 H   0  0  0  0  0  0  0  0  0  0  0  0
   15.7560   13.0220   24.3070 H   0  0  0  0  0  0  0  0  0  0  0  0
   14.6510    9.8330   22.8880 H   0  0  0  0  0  0  0  0  0  0  0  0
   15.4200   11.3950   22.5880 H   0  0  0  0  0  0  0  0  0  0  0  0
   14.3010   11.1710   23.9880 H   0  0  0  0  0  0  0  0  0  0  0  0
   18.1030    9.6800   25.6070 H   0  0  0  0  0  0  0  0  0  0  0  0
  1  2  1  0  0  0  0
  1 51  1  0  0  0  0
  1 52  1  0  0  0  0
  1 53  1  0  0  0  0
  2  3  1  0  0  0  0
  2 54  1  0  0  0  0
  2 55  1  0  0  0  0
  3  4  1  0  0  0  0
  3 56  1  0  0  0  0
  3 57  1  0  0  0  0
  4  5  1  0  0  0  0
  4  8  1  0  0  0  0
  5  6  1  0  0  0  0
  5 58  1  0  0  0  0
  5 59  1  0  0  0  0
  6  7  1  0  0  0  0
  6 60  1  0  0  0  0
  6 61  1  0  0  0  0
  7 62  1  0  0  0  0
  7 63  1  0  0  0  0
  7 64  1  0  0  0  0
  8  9  2  0  0  0  0
  8 10  1  0  0  0  0
 10 11  1  0  0  0  0
 10 24  2  0  0  0  0
 11 12  2  0  0  0  0
 11 65  1  0  0  0  0
 12 13  1  0  0  0  0
 12 22  1  0  0  0  0
 13 14  1  0  0  0  0
 14 15  1  0  0  0  0
 14 21  2  0  0  0  0
 15 16  2  0  0  0  0
 15 66  1  0  0  0  0
 16 17  1  0  0  0  0
 16 67  1  0  0  0  0
 17 18  1  0  0  0  0
 17 20  2  0  0  0  0
 18 19  1  0  0  0  0
 19 68  1  0  0  0  0
 19 69  1  0  0  0  0
 19 70  1  0  0  0  0
 20 21  1  0  0  0  0
 20 71  1  0  0  0  0
 21 72  1  0  0  0  0
 22 23  2  0  0  0  0
 22 73  1  0  0  0  0
 23 24  1  0  0  0  0
 23 25  1  0  0  0  0
 24 74  1  0  0  0  0
 25 26  2  0  0  0  0
 25 27  1  0  0  0  0
 27 28  1  0  0  0  0
 27 75  1  0  0  0  0
 28 29  1  0  0  0  0
 28 38  1  0  0  0  0
 28 76  1  0  0  0  0
 29 30  1  0  0  0  0
 29 77  1  0  0  0  0
 29 78  1  0  0  0  0
 30 31  1  0  0  0  0
 30 37  2  0  0  0  0
 31 32  2  0  0  0  0
 31 79  1  0  0  0  0
 32 33  1  0  0  0  0
 32 34  1  0  0  0  0
 34 35  2  0  0  0  0
 34 80  1  0  0  0  0
 35 36  1  0  0  0  0
 35 37  1  0  0  0  0
 37 81  1  0  0  0  0
 38 39  1  0  0  0  0
 38 40  1  0  0  0  0
 38 82  1  0  0  0  0
 39 83  1  0  0  0  0
 40 41  1  0  0  0  0
 40 84  1  0  0  0  0
 40 85  1  0  0  0  0
 41 42  1  0  0  0  0
 41 86  1  0  0  0  0
 41 87  1  0  0  0  0
 42 43  1  0  0  0  0
 42 88  1  0  0  0  0
 42 89  1  0  0  0  0
 43 44  1  0  0  0  0
 43 50  2  0  0  0  0
 44 45  2  0  0  0  0
 44 90  1  0  0  0  0
 45 46  1  0  0  0  0
 45 91  1  0  0  0  0
 46 47  2  0  0  0  0
 46 92  1  0  0  0  0
 47 48  1  0  0  0  0
 47 50  1  0  0  0  0
 48 49  1  0  0  0  0
 49 93  1  0  0  0  0
 49 94  1  0  0  0  0
 49 95  1  0  0  0  0
 50 96  1  0  0  0  0
M  CHG  1  41   1
M  END
>  <PARENT_CMPD_ID>
CHEMBL539654

>  <STANDARD_TYPE>
IC50

>  <RELATION>
=

>  <STANDARD_VALUE>
10

>  <STANDARD_UNITS>
nM

>  <COMPOUND_KEY>
7b

>  <PUBMED_ID>
19375914

>  <JOURNAL>
Bioorg. Med. Chem. Lett.

>  <YEAR>
2009

>  <VOLUME>
19

>  <FIRST_PAGE>
2654

>  <Company>
BMS

>  <idx>
396

>  <Model>
Valid

>  <target>
8

>  <des_pred_mlr>
8.4661503

>  <RF_Canvas>
7.5782137

>  <DNN_Canvas>
7.3652482

>  <pred_CoMFA>
6.8618999

>  <pred_COMSIA>
8.5852003

>  <pred_abm5>
7.4109931

>  <pred_ff8>
6.5127277

>  <pred_gau6>
7.4800878

>  <CID>
BACE_396

>  <active>
1

>  <des_class_bayes>
1

>  <maacs_class_bayes>
1

>  <radial_class_bayes>
0

>  <dend_class_bayes>
1

>  <molprint_class_bayes>
1

>  <RF_canvas>
1

>  <DNN_canvas>
1

$$$$
CHEMBL556453
  MOE2015           3D

 76 79  0  0  1  0  0  0  0  0999 V2000
   18.2120   13.2980   25.9920 C   0  0  0  0  0  0  0  0  0  0  0  0
   19.3880   12.4430   26.4380 C   0  0  0  0  0  0  0  0  0  0  0  0
   19.5290   11.1820   25.5950 C   0  0  3  0  0  0  0  0  0  0  0  0
   18.3640   10.2310   25.8070 C   0  0  0  0  0  0  0  0  0  0  0  0
   20.8070   10.4480   25.9380 N   0  3  0  0  0  0  0  0  0  0  0  0
   22.0500   10.9950   25.2710 C   0  0  0  0  0  0  0  0  0  0  0  0
   22.5330    9.9940   24.2020 C   0  0  1  0  0  0  0  0  0  0  0  0
   21.4090    9.1730   23.8530 O   0  0  0  0  0  0  0  0  0  0  0  0
   23.1070   10.7180   22.9600 C   0  0  3  0  0  0  0  0  0  0  0  0
   23.3930    9.7630   21.7770 C   0  0  0  0  0  0  0  0  0  0  0  0
   24.2370   10.3820   20.6870 C   0  0  0  0  0  0  0  0  0  0  0  0
   23.8430   11.5570   20.0490 C   0  0  0  0  0  0  0  0  0  0  0  0
   24.6620   12.1570   19.1000 C   0  0  0  0  0  0  0  0  0  0  0  0
   25.8770   11.5790   18.7650 C   0  0  0  0  0  0  0  0  0  0  0  0
   26.2700   10.3990   19.3760 C   0  0  0  0  0  0  0  0  0  0  0  0
   25.4560    9.8040   20.3310 C   0  0  0  0  0  0  0  0  0  0  0  0
   24.3230   11.4590   23.2800 N   0  0  0  0  0  0  0  0  0  0  0  0
   24.3280   12.8200   23.4930 C   0  0  0  0  0  0  0  0  0  0  0  0
   23.3020   13.4800   23.5880 O   0  0  0  0  0  0  0  0  0  0  0  0
   25.6690   13.4490   23.5470 C   0  0  0  0  0  0  0  0  0  0  0  0
   25.8790   14.4990   24.4290 C   0  0  0  0  0  0  0  0  0  0  0  0
   27.1330   15.0950   24.5060 C   0  0  0  0  0  0  0  0  0  0  0  0
   27.3850   16.1070   25.4700 N   0  0  0  0  0  0  0  0  0  0  0  0
   26.7200   17.3950   25.3570 C   0  0  0  0  0  0  0  0  0  0  0  0
   28.6750   15.8820   26.5230 S   0  0  0  0  0  0  0  0  0  0  0  0
   28.7330   14.4720   26.8430 O   0  0  0  0  0  0  0  0  0  0  0  0
   28.5190   16.8500   27.5890 O   0  0  0  0  0  0  0  0  0  0  0  0
   30.1590   16.2910   25.6090 C   0  0  0  0  0  0  0  0  0  0  0  0
   30.4930   17.2670   25.9780 H   0  0  0  0  0  0  0  0  0  0  0  0
   30.9110   15.5520   25.9090 H   0  0  0  0  0  0  0  0  0  0  0  0
   30.0550   16.3460   24.1020 C   0  0  0  0  0  0  0  0  0  0  0  0
   29.4790   15.1460   23.4490 C   0  0  0  0  0  0  0  0  0  0  0  0
   30.0470   14.3330   22.5000 C   0  0  0  0  0  0  0  0  0  0  0  0
   29.1020   13.4410   22.0790 N   0  0  0  0  0  0  0  0  0  0  0  0
   29.3230   12.4590   21.0380 C   0  0  0  0  0  0  0  0  0  0  0  0
   29.6300   11.0840   21.5840 C   0  0  0  0  0  0  0  0  0  0  0  0
   27.9310   13.6330   22.7670 C   0  0  0  0  0  0  0  0  0  0  0  0
   26.6890   13.0000   22.6960 C   0  0  0  0  0  0  0  0  0  0  0  0
   28.1570   14.6800   23.6450 C   0  0  0  0  0  0  0  0  0  0  0  0
   18.2110   14.2450   26.5410 H   0  0  0  0  0  0  0  0  0  0  0  0
   17.2550   12.8060   26.1890 H   0  0  0  0  0  0  0  0  0  0  0  0
   18.2730   13.5290   24.9240 H   0  0  0  0  0  0  0  0  0  0  0  0
   19.2740   12.1890   27.4990 H   0  0  0  0  0  0  0  0  0  0  0  0
   20.2990   13.0490   26.3590 H   0  0  0  0  0  0  0  0  0  0  0  0
   19.5900   11.4270   24.5280 H   0  0  0  0  0  0  0  0  0  0  0  0
   18.2530    9.9620   26.8630 H   0  0  0  0  0  0  0  0  0  0  0  0
   18.5060    9.3030   25.2410 H   0  0  0  0  0  0  0  0  0  0  0  0
   17.4200   10.6670   25.4660 H   0  0  0  0  0  0  0  0  0  0  0  0
   20.9360   10.3160   26.9480 H   0  0  0  0  0  0  0  0  0  0  0  0
   20.7260    9.5100   25.4990 H   0  0  0  0  0  0  0  0  0  0  0  0
   21.7830   11.9650   24.8480 H   0  0  0  0  0  0  0  0  0  0  0  0
   22.8030   11.1470   26.0500 H   0  0  0  0  0  0  0  0  0  0  0  0
   23.2890    9.3360   24.6470 H   0  0  0  0  0  0  0  0  0  0  0  0
   21.7220    8.4300   23.3010 H   0  0  0  0  0  0  0  0  0  0  0  0
   22.3500   11.4320   22.6080 H   0  0  0  0  0  0  0  0  0  0  0  0
   23.9040    8.8700   22.1610 H   0  0  0  0  0  0  0  0  0  0  0  0
   22.4520    9.4130   21.3350 H   0  0  0  0  0  0  0  0  0  0  0  0
   22.8930   12.0280   20.2930 H   0  0  0  0  0  0  0  0  0  0  0  0
   24.3460   13.0760   18.6130 H   0  0  0  0  0  0  0  0  0  0  0  0
   26.5130   12.0450   18.0170 H   0  0  0  0  0  0  0  0  0  0  0  0
   27.2190    9.9410   19.1110 H   0  0  0  0  0  0  0  0  0  0  0  0
   25.7920    8.8840   20.8040 H   0  0  0  0  0  0  0  0  0  0  0  0
   25.1990   10.9490   23.3240 H   0  0  0  0  0  0  0  0  0  0  0  0
   25.0810   14.8310   25.0880 H   0  0  0  0  0  0  0  0  0  0  0  0
   26.2890   17.5400   24.3610 H   0  0  0  0  0  0  0  0  0  0  0  0
   27.4240   18.2160   25.5180 H   0  0  0  0  0  0  0  0  0  0  0  0
   25.9160   17.4660   26.0960 H   0  0  0  0  0  0  0  0  0  0  0  0
   29.4500   17.2160   23.8150 H   0  0  0  0  0  0  0  0  0  0  0  0
   31.0560   16.5380   23.6940 H   0  0  0  0  0  0  0  0  0  0  0  0
   31.0370   14.3490   22.0610 H   0  0  0  0  0  0  0  0  0  0  0  0
   28.4330   12.4400   20.4020 H   0  0  0  0  0  0  0  0  0  0  0  0
   30.1530   12.8100   20.4140 H   0  0  0  0  0  0  0  0  0  0  0  0
   28.8020   10.6990   22.1880 H   0  0  0  0  0  0  0  0  0  0  0  0
   30.5240   11.1000   22.2170 H   0  0  0  0  0  0  0  0  0  0  0  0
   29.8060   10.3800   20.7650 H   0  0  0  0  0  0  0  0  0  0  0  0
   26.5180   12.2090   21.9740 H   0  0  0  0  0  0  0  0  0  0  0  0
  1  2  1  0  0  0  0
  1 40  1  0  0  0  0
  1 41  1  0  0  0  0
  1 42  1  0  0  0  0
  2  3  1  0  0  0  0
  2 43  1  0  0  0  0
  2 44  1  0  0  0  0
  3  4  1  0  0  0  0
  3  5  1  0  0  0  0
  3 45  1  0  0  0  0
  4 46  1  0  0  0  0
  4 47  1  0  0  0  0
  4 48  1  0  0  0  0
  5  6  1  0  0  0  0
  5 49  1  0  0  0  0
  5 50  1  0  0  0  0
  6  7  1  0  0  0  0
  6 51  1  0  0  0  0
  6 52  1  0  0  0  0
  7  8  1  0  0  0  0
  7  9  1  0  0  0  0
  7 53  1  0  0  0  0
  8 54  1  0  0  0  0
  9 10  1  0  0  0  0
  9 17  1  0  0  0  0
  9 55  1  0  0  0  0
 10 11  1  0  0  0  0
 10 56  1  0  0  0  0
 10 57  1  0  0  0  0
 11 12  1  0  0  0  0
 11 16  2  0  0  0  0
 12 13  2  0  0  0  0
 12 58  1  0  0  0  0
 13 14  1  0  0  0  0
 13 59  1  0  0  0  0
 14 15  2  0  0  0  0
 14 60  1  0  0  0  0
 15 16  1  0  0  0  0
 15 61  1  0  0  0  0
 16 62  1  0  0  0  0
 17 18  1  0  0  0  0
 17 63  1  0  0  0  0
 18 19  2  0  0  0  0
 18 20  1  0  0  0  0
 20 21  2  0  0  0  0
 20 38  1  0  0  0  0
 21 22  1  0  0  0  0
 21 64  1  0  0  0  0
 22 23  1  0  0  0  0
 22 39  2  0  0  0  0
 23 24  1  0  0  0  0
 23 25  1  0  0  0  0
 24 65  1  0  0  0  0
 24 66  1  0  0  0  0
 24 67  1  0  0  0  0
 25 26  2  0  0  0  0
 25 27  2  0  0  0  0
 25 28  1  0  0  0  0
 28 29  1  0  0  0  0
 28 30  1  0  0  0  0
 28 31  1  0  0  0  0
 31 32  1  0  0  0  0
 31 68  1  0  0  0  0
 31 69  1  0  0  0  0
 32 33  2  0  0  0  0
 32 39  1  0  0  0  0
 33 34  1  0  0  0  0
 33 70  1  0  0  0  0
 34 35  1  0  0  0  0
 34 37  1  0  0  0  0
 35 36  1  0  0  0  0
 35 71  1  0  0  0  0
 35 72  1  0  0  0  0
 36 73  1  0  0  0  0
 36 74  1  0  0  0  0
 36 75  1  0  0  0  0
 37 38  2  0  0  0  0
 37 39  1  0  0  0  0
 38 76  1  0  0  0  0
M  CHG  1   5   1
M  END
>  <PARENT_CMPD_ID>
CHEMBL556453

>  <STANDARD_TYPE>
IC50

>  <RELATION>
=

>  <STANDARD_VALUE>
10

>  <STANDARD_UNITS>
nM

>  <COMPOUND_KEY>
9

>  <PUBMED_ID>
19406640

>  <JOURNAL>
Bioorg. Med. Chem. Lett.

>  <YEAR>
2009

>  <VOLUME>
19

>  <FIRST_PAGE>
3674

>  <Company>
GSK

>  <idx>
397

>  <Model>
Valid

>  <target>
8

>  <des_pred_mlr>
6.8343

>  <RF_Canvas>
7.6532354

>  <DNN_Canvas>
7.5093017

>  <pred_CoMFA>
6.8336

>  <pred_COMSIA>
6.6585999

>  <pred_abm5>
6.7352238

>  <pred_ff8>
7.3815765

>  <pred_gau6>
6.1467495

>  <CID>
BACE_397

>  <active>
1

>  <des_class_bayes>
0

>  <maacs_class_bayes>
1

>  <radial_class_bayes>
1

>  <dend_class_bayes>
1

>  <molprint_class_bayes>
1

>  <RF_canvas>
1

>  <DNN_canvas>
1

$$$$
CHEMBL567477
  MOE2015           3D

 51 54  0  0  1  0  0  0  0  0999 V2000
   17.7500   12.3830   20.2580 C   0  0  0  0  0  0  0  0  0  0  0  0
   22.8540    9.7180   23.8010 N   0  0  0  0  0  0  0  0  0  0  0  0
   16.8590    9.8140   19.6600 O   0  0  0  0  0  0  0  0  0  0  0  0
   18.6190   11.1680   20.4430 C   0  0  0  0  0  0  0  0  0  0  0  0
   22.2470   11.5460   22.6650 N   0  0  0  0  0  0  0  0  0  0  0  0
   22.5740    8.0550   22.2270 O   0  0  0  0  0  0  0  0  0  0  0  0
   19.9230   11.3320   20.9350 C   0  0  0  0  0  0  0  0  0  0  0  0
   23.0350   11.8430   24.8730 N   0  0  0  0  0  0  0  0  0  0  0  0
   20.7770   10.2380   21.1260 C   0  0  0  0  0  0  0  0  0  0  0  0
   28.7130    9.7060   21.9370 N   0  0  0  0  0  0  0  0  0  0  0  0
   20.2880    8.9640   20.8080 C   0  0  0  0  0  0  0  0  0  0  0  0
   18.9890    8.7830   20.3140 C   0  0  0  0  0  0  0  0  0  0  0  0
   18.1460    9.8810   20.1280 C   0  0  0  0  0  0  0  0  0  0  0  0
   16.1870    8.5600   19.7210 C   0  0  0  0  0  0  0  0  0  0  0  0
   22.2010   10.4250   21.6720 C   0  0  2  0  0  0  0  0  0  0  0  0
   22.5750    9.2280   22.5610 C   0  0  0  0  0  0  0  0  0  0  0  0
   22.7210   11.0740   23.7810 C   0  0  0  0  0  0  0  0  0  0  0  0
   23.2410    8.8800   24.9330 C   0  0  0  0  0  0  0  0  0  0  0  0
   23.2440   10.6430   20.5630 C   0  0  0  0  0  0  0  0  0  0  0  0
   22.9490   10.8710   19.2070 C   0  0  0  0  0  0  0  0  0  0  0  0
   23.9850   11.0580   18.2780 C   0  0  0  0  0  0  0  0  0  0  0  0
   25.3250   11.0320   18.6730 C   0  0  0  0  0  0  0  0  0  0  0  0
   25.6480   10.8070   20.0240 C   0  0  0  0  0  0  0  0  0  0  0  0
   24.5960   10.6220   20.9380 C   0  0  0  0  0  0  0  0  0  0  0  0
   27.0300   10.7720   20.5310 C   0  0  0  0  0  0  0  0  0  0  0  0
   27.9890   11.7190   20.1450 C   0  0  0  0  0  0  0  0  0  0  0  0
   29.2910   11.6580   20.6480 C   0  0  0  0  0  0  0  0  0  0  0  0
   29.6040   10.6410   21.5360 C   0  0  0  0  0  0  0  0  0  0  0  0
   27.4540    9.7920   21.4340 C   0  0  0  0  0  0  0  0  0  0  0  0
   18.3020   13.2740   20.5580 H   0  0  0  0  0  0  0  0  0  0  0  0
   16.8550   12.2860   20.8720 H   0  0  0  0  0  0  0  0  0  0  0  0
   17.4640   12.4690   19.2100 H   0  0  0  0  0  0  0  0  0  0  0  0
   20.2760   12.3250   21.1720 H   0  0  0  0  0  0  0  0  0  0  0  0
   22.9010   12.8440   24.8400 H   0  0  0  0  0  0  0  0  0  0  0  0
   23.4000   11.4090   25.7090 H   0  0  0  0  0  0  0  0  0  0  0  0
   20.9260    8.1030   20.9460 H   0  0  0  0  0  0  0  0  0  0  0  0
   18.6380    7.7900   20.0760 H   0  0  0  0  0  0  0  0  0  0  0  0
   15.1810    8.6670   19.3150 H   0  0  0  0  0  0  0  0  0  0  0  0
   16.1270    8.2300   20.7580 H   0  0  0  0  0  0  0  0  0  0  0  0
   16.7380    7.8240   19.1360 H   0  0  0  0  0  0  0  0  0  0  0  0
   23.2550    7.8350   24.6230 H   0  0  0  0  0  0  0  0  0  0  0  0
   22.5230    9.0100   25.7420 H   0  0  0  0  0  0  0  0  0  0  0  0
   24.2340    9.1710   25.2770 H   0  0  0  0  0  0  0  0  0  0  0  0
   21.9210   10.9020   18.8790 H   0  0  0  0  0  0  0  0  0  0  0  0
   23.7420   11.2250   17.2390 H   0  0  0  0  0  0  0  0  0  0  0  0
   26.2990   11.2210   17.7690 F   0  0  0  0  0  0  0  0  0  0  0  0
   24.8400   10.4560   21.9770 H   0  0  0  0  0  0  0  0  0  0  0  0
   27.7190   12.5030   19.4530 H   0  0  0  0  0  0  0  0  0  0  0  0
   30.0340   12.3840   20.3530 H   0  0  0  0  0  0  0  0  0  0  0  0
   30.6090   10.5930   21.9270 H   0  0  0  0  0  0  0  0  0  0  0  0
   26.5570    8.8750   21.8300 F   0  0  0  0  0  0  0  0  0  0  0  0
  1  4  1  0  0  0  0
  1 30  1  0  0  0  0
  1 31  1  0  0  0  0
  1 32  1  0  0  0  0
  2 16  1  0  0  0  0
  2 17  1  0  0  0  0
  2 18  1  0  0  0  0
  3 13  1  0  0  0  0
  3 14  1  0  0  0  0
  4  7  2  0  0  0  0
  4 13  1  0  0  0  0
  5 15  1  0  0  0  0
  5 17  2  0  0  0  0
  6 16  2  0  0  0  0
  7  9  1  0  0  0  0
  7 33  1  0  0  0  0
  8 17  1  0  0  0  0
  8 34  1  0  0  0  0
  8 35  1  0  0  0  0
  9 11  2  0  0  0  0
  9 15  1  0  0  0  0
 10 28  2  0  0  0  0
 10 29  1  0  0  0  0
 11 12  1  0  0  0  0
 11 36  1  0  0  0  0
 12 13  2  0  0  0  0
 12 37  1  0  0  0  0
 14 38  1  0  0  0  0
 14 39  1  0  0  0  0
 14 40  1  0  0  0  0
 15 16  1  0  0  0  0
 15 19  1  0  0  0  0
 18 41  1  0  0  0  0
 18 42  1  0  0  0  0
 18 43  1  0  0  0  0
 19 20  2  0  0  0  0
 19 24  1  0  0  0  0
 20 21  1  0  0  0  0
 20 44  1  0  0  0  0
 21 22  2  0  0  0  0
 21 45  1  0  0  0  0
 22 23  1  0  0  0  0
 22 46  1  0  0  0  0
 23 24  2  0  0  0  0
 23 25  1  0  0  0  0
 24 47  1  0  0  0  0
 25 26  1  0  0  0  0
 25 29  2  0  0  0  0
 26 27  2  0  0  0  0
 26 48  1  0  0  0  0
 27 28  1  0  0  0  0
 27 49  1  0  0  0  0
 28 50  1  0  0  0  0
 29 51  1  0  0  0  0
M  END
>  <PARENT_CMPD_ID>
CHEMBL567477

>  <STANDARD_TYPE>
IC50

>  <RELATION>
=

>  <STANDARD_VALUE>
10

>  <STANDARD_UNITS>
nM

>  <COMPOUND_KEY>
(S)-55

>  <PUBMED_ID>
19968289

>  <JOURNAL>
J. Med. Chem.

>  <YEAR>
2010

>  <VOLUME>
53

>  <FIRST_PAGE>
1146

>  <Company>
Wyeth

>  <idx>
398

>  <Model>
Valid

>  <target>
8

>  <des_pred_mlr>
6.90904

>  <RF_Canvas>
7.5365753

>  <DNN_Canvas>
7.7070179

>  <pred_CoMFA>
7.6676998

>  <pred_COMSIA>
7.0679002

>  <pred_abm5>
6.8724036

>  <pred_ff8>
5.131021

>  <pred_gau6>
7.0787969

>  <CID>
BACE_398

>  <active>
1

>  <des_class_bayes>
1

>  <maacs_class_bayes>
1

>  <radial_class_bayes>
1

>  <dend_class_bayes>
0

>  <molprint_class_bayes>
0

>  <RF_canvas>
1

>  <DNN_canvas>
1

$$$$
CHEMBL1076906
  MOE2015           3D

110113  0  0  1  0  0  0  0  0999 V2000
   30.1440   13.4960   22.1610 O   0  0  0  0  0  0  0  0  0  0  0  0
   29.1330   12.8860   22.3900 C   0  0  0  0  0  0  0  0  0  0  0  0
   28.8940   11.6370   22.0460 N   0  0  0  0  0  0  0  0  0  0  0  0
   29.8730   10.8790   21.2910 C   0  0  3  0  0  0  0  0  0  0  0  0
   30.6580   10.0790   22.2730 C   0  0  0  0  0  0  0  0  0  0  0  0
   30.0260    9.1230   23.0860 C   0  0  0  0  0  0  0  0  0  0  0  0
   30.8080    8.3750   23.9630 C   0  0  0  0  0  0  0  0  0  0  0  0
   32.1940    8.5790   24.0520 C   0  0  0  0  0  0  0  0  0  0  0  0
   32.8310    9.5330   23.2690 C   0  0  0  0  0  0  0  0  0  0  0  0
   32.0360   10.2890   22.3900 C   0  0  0  0  0  0  0  0  0  0  0  0
   29.2090   10.0380   20.1920 C   0  0  0  0  0  0  0  0  0  0  0  0
   28.0590   13.4960   23.1700 C   0  0  0  0  0  0  0  0  0  0  0  0
   28.3540   14.4690   24.1070 C   0  0  0  0  0  0  0  0  0  0  0  0
   27.2770   14.9310   24.8510 C   0  0  0  0  0  0  0  0  0  0  0  0
   27.4540   15.9100   25.8540 N   0  0  0  0  0  0  0  0  0  0  0  0
   28.8010   16.1540   26.5840 S   0  0  0  0  0  0  0  0  0  0  0  0
   28.3600   16.8020   27.8440 O   0  0  0  0  0  0  0  0  0  0  0  0
   29.6490   17.3480   25.7380 C   0  0  0  0  0  0  0  0  0  0  0  0
   29.6030   14.9590   26.6260 O   0  0  0  0  0  0  0  0  0  0  0  0
   26.2480   16.7010   26.2220 C   0  0  0  0  0  0  0  0  0  0  0  0
   25.9990   14.4240   24.6290 C   0  0  0  0  0  0  0  0  0  0  0  0
   26.7900   12.9620   22.9450 C   0  0  0  0  0  0  0  0  0  0  0  0
   25.7190   13.4300   23.6920 C   0  0  0  0  0  0  0  0  0  0  0  0
   24.3220   12.8810   23.4610 C   0  0  0  0  0  0  0  0  0  0  0  0
   23.3930   13.6600   23.4950 O   0  0  0  0  0  0  0  0  0  0  0  0
   24.1200   11.5710   23.2830 N   0  0  0  0  0  0  0  0  0  0  0  0
   22.8270   10.9460   23.0420 C   0  0  3  0  0  0  0  0  0  0  0  0
   22.9910    9.7810   22.0830 C   0  0  0  0  0  0  0  0  0  0  0  0
   24.3080    9.7320   21.4880 O   0  0  0  0  0  0  0  0  0  0  0  0
   22.2290   10.3110   24.2800 C   0  0  3  0  0  0  0  0  0  0  0  0
   23.1760    9.3680   24.8210 O   0  0  0  0  0  0  0  0  0  0  0  0
   21.7280   11.4260   25.2080 C   0  0  0  0  0  0  0  0  0  0  0  0
   20.5110   10.9420   25.9880 C   0  0  2  0  0  0  0  0  0  0  0  0
   20.4270    9.4170   26.0650 C   0  0  0  0  0  0  0  0  0  0  0  0
   19.2080   11.3630   25.3330 C   0  0  0  0  0  0  0  0  0  0  0  0
   19.1030   12.5270   24.9740 O   0  0  0  0  0  0  0  0  0  0  0  0
   18.1880   10.5150   25.0930 N   0  0  0  0  0  0  0  0  0  0  0  0
   16.9740   11.0650   24.5000 C   0  0  3  0  0  0  0  0  0  0  0  0
   15.8390   10.0730   24.4700 C   0  0  0  0  0  0  0  0  0  0  0  0
   15.3840    9.7490   23.0600 C   0  0  0  0  0  0  0  0  0  0  0  0
   16.0720    8.8650   25.3540 C   0  0  0  0  0  0  0  0  0  0  0  0
   16.5710   12.1970   25.4040 C   0  0  0  0  0  0  0  0  0  0  0  0
   16.5120   11.9470   26.5970 O   0  0  0  0  0  0  0  0  0  0  0  0
   16.2440   13.4010   24.9320 N   0  0  0  0  0  0  0  0  0  0  0  0
   15.8590   14.4670   25.8600 C   0  0  0  0  0  0  0  0  0  0  0  0
   15.9190   15.7680   25.1060 C   0  0  0  0  0  0  0  0  0  0  0  0
   14.8200   16.1790   24.3330 C   0  0  0  0  0  0  0  0  0  0  0  0
   14.8580   17.3710   23.5960 C   0  0  0  0  0  0  0  0  0  0  0  0
   16.0220   18.1470   23.6410 C   0  0  0  0  0  0  0  0  0  0  0  0
   17.1130   17.7270   24.4210 C   0  0  0  0  0  0  0  0  0  0  0  0
   17.0730   16.5380   25.1620 C   0  0  0  0  0  0  0  0  0  0  0  0
   28.0210   11.2030   22.3100 H   0  0  0  0  0  0  0  0  0  0  0  0
   30.5520   11.5360   20.7490 H   0  0  0  0  0  0  0  0  0  0  0  0
   28.9580    8.9720   23.0320 H   0  0  0  0  0  0  0  0  0  0  0  0
   30.3400    7.6260   24.5850 H   0  0  0  0  0  0  0  0  0  0  0  0
   32.7750    7.9840   24.7410 H   0  0  0  0  0  0  0  0  0  0  0  0
   33.8980    9.6880   23.3330 H   0  0  0  0  0  0  0  0  0  0  0  0
   32.5030   11.0540   21.7880 H   0  0  0  0  0  0  0  0  0  0  0  0
   28.5030    9.3410   20.6440 H   0  0  0  0  0  0  0  0  0  0  0  0
   29.9730    9.4810   19.6500 H   0  0  0  0  0  0  0  0  0  0  0  0
   28.6800   10.6950   19.5020 H   0  0  0  0  0  0  0  0  0  0  0  0
   29.3560   14.8450   24.2510 H   0  0  0  0  0  0  0  0  0  0  0  0
   29.0520   18.2590   25.6990 H   0  0  0  0  0  0  0  0  0  0  0  0
   29.8500   17.0020   24.7240 H   0  0  0  0  0  0  0  0  0  0  0  0
   30.5920   17.5530   26.2460 H   0  0  0  0  0  0  0  0  0  0  0  0
   25.4060   16.3890   25.6040 H   0  0  0  0  0  0  0  0  0  0  0  0
   26.4450   17.7610   26.0590 H   0  0  0  0  0  0  0  0  0  0  0  0
   26.0100   16.5330   27.2720 H   0  0  0  0  0  0  0  0  0  0  0  0
   25.1820   14.8210   25.2130 H   0  0  0  0  0  0  0  0  0  0  0  0
   26.6430   12.1950   22.1990 H   0  0  0  0  0  0  0  0  0  0  0  0
   24.9290   10.9670   23.3190 H   0  0  0  0  0  0  0  0  0  0  0  0
   22.1900   11.7490   22.6700 H   0  0  0  0  0  0  0  0  0  0  0  0
   22.2520    9.8300   21.2830 H   0  0  0  0  0  0  0  0  0  0  0  0
   22.8960    8.8300   22.6070 H   0  0  0  0  0  0  0  0  0  0  0  0
   21.3420    9.7100   24.0810 H   0  0  0  0  0  0  0  0  0  0  0  0
   23.9840    9.8480   25.0160 H   0  0  0  0  0  0  0  0  0  0  0  0
   21.4530   12.2960   24.6120 H   0  0  0  0  0  0  0  0  0  0  0  0
   22.5200   11.6990   25.9060 H   0  0  0  0  0  0  0  0  0  0  0  0
   20.6380   11.3860   26.9750 H   0  0  0  0  0  0  0  0  0  0  0  0
   20.3000    9.0090   25.0620 H   0  0  0  0  0  0  0  0  0  0  0  0
   19.5760    9.1310   26.6830 H   0  0  0  0  0  0  0  0  0  0  0  0
   21.3440    9.0250   26.5040 H   0  0  0  0  0  0  0  0  0  0  0  0
   18.2620    9.5330   25.3160 H   0  0  0  0  0  0  0  0  0  0  0  0
   17.1710   11.3590   23.4690 H   0  0  0  0  0  0  0  0  0  0  0  0
   14.9850   10.5700   24.9290 H   0  0  0  0  0  0  0  0  0  0  0  0
   16.1890    9.2440   22.5250 H   0  0  0  0  0  0  0  0  0  0  0  0
   15.1250   10.6720   22.5410 H   0  0  0  0  0  0  0  0  0  0  0  0
   14.5110    9.0980   23.1010 H   0  0  0  0  0  0  0  0  0  0  0  0
   16.9180    8.2940   24.9730 H   0  0  0  0  0  0  0  0  0  0  0  0
   15.1810    8.2380   25.3540 H   0  0  0  0  0  0  0  0  0  0  0  0
   16.2850    9.1950   26.3710 H   0  0  0  0  0  0  0  0  0  0  0  0
   16.2620   13.5770   23.9380 H   0  0  0  0  0  0  0  0  0  0  0  0
   16.5490   14.4940   26.7030 H   0  0  0  0  0  0  0  0  0  0  0  0
   14.8460   14.2950   26.2250 H   0  0  0  0  0  0  0  0  0  0  0  0
   13.9310   15.5660   24.3060 H   0  0  0  0  0  0  0  0  0  0  0  0
   14.0080   17.6830   23.0070 H   0  0  0  0  0  0  0  0  0  0  0  0
   16.0820   19.0660   23.0780 H   0  0  0  0  0  0  0  0  0  0  0  0
   18.0050   18.3360   24.4500 H   0  0  0  0  0  0  0  0  0  0  0  0
   17.9170   16.2290   25.7610 H   0  0  0  0  0  0  0  0  0  0  0  0
   25.0460   11.4410   17.7560 C   0  0  0  0  0  0  0  0  0  0  0  0
   25.2640   11.8670   16.7830 H   0  0  0  0  0  0  0  0  0  0  0  0
   25.7960   10.3850   18.2510 C   0  0  0  0  0  0  0  0  0  0  0  0
   26.8060    9.8930   17.5210 F   0  0  0  0  0  0  0  0  0  0  0  0
   25.5210    9.8310   19.4980 C   0  0  0  0  0  0  0  0  0  0  0  0
   26.1230    9.0030   19.8600 H   0  0  0  0  0  0  0  0  0  0  0  0
   24.4720   10.3340   20.2690 C   0  0  0  0  0  0  0  0  0  0  0  0
   23.7210   11.4060   19.7880 C   0  0  0  0  0  0  0  0  0  0  0  0
   22.9170   11.8570   20.3580 H   0  0  0  0  0  0  0  0  0  0  0  0
   24.0140   11.9440   18.5350 C   0  0  0  0  0  0  0  0  0  0  0  0
   23.2830   12.9690   18.0770 F   0  0  0  0  0  0  0  0  0  0  0  0
  1  2  2  0  0  0  0
  2  3  1  0  0  0  0
  2 12  1  0  0  0  0
  3  4  1  0  0  0  0
  3 52  1  0  0  0  0
  4  5  1  0  0  0  0
  4 11  1  0  0  0  0
  4 53  1  0  0  0  0
  5  6  1  0  0  0  0
  5 10  2  0  0  0  0
  6  7  2  0  0  0  0
  6 54  1  0  0  0  0
  7  8  1  0  0  0  0
  7 55  1  0  0  0  0
  8  9  2  0  0  0  0
  8 56  1  0  0  0  0
  9 10  1  0  0  0  0
  9 57  1  0  0  0  0
 10 58  1  0  0  0  0
 11 59  1  0  0  0  0
 11 60  1  0  0  0  0
 11 61  1  0  0  0  0
 12 13  1  0  0  0  0
 12 22  2  0  0  0  0
 13 14  2  0  0  0  0
 13 62  1  0  0  0  0
 14 15  1  0  0  0  0
 14 21  1  0  0  0  0
 15 16  1  0  0  0  0
 15 20  1  0  0  0  0
 16 17  2  0  0  0  0
 16 18  1  0  0  0  0
 16 19  2  0  0  0  0
 18 63  1  0  0  0  0
 18 64  1  0  0  0  0
 18 65  1  0  0  0  0
 20 66  1  0  0  0  0
 20 67  1  0  0  0  0
 20 68  1  0  0  0  0
 21 23  2  0  0  0  0
 21 69  1  0  0  0  0
 22 23  1  0  0  0  0
 22 70  1  0  0  0  0
 23 24  1  0  0  0  0
 24 25  2  0  0  0  0
 24 26  1  0  0  0  0
 26 27  1  0  0  0  0
 26 71  1  0  0  0  0
 27 28  1  0  0  0  0
 27 30  1  0  0  0  0
 27 72  1  0  0  0  0
 28 29  1  0  0  0  0
 28 73  1  0  0  0  0
 28 74  1  0  0  0  0
 29106  1  0  0  0  0
 30 31  1  0  0  0  0
 30 32  1  0  0  0  0
 30 75  1  0  0  0  0
 31 76  1  0  0  0  0
 32 33  1  0  0  0  0
 32 77  1  0  0  0  0
 32 78  1  0  0  0  0
 33 34  1  0  0  0  0
 33 35  1  0  0  0  0
 33 79  1  0  0  0  0
 34 80  1  0  0  0  0
 34 81  1  0  0  0  0
 34 82  1  0  0  0  0
 35 36  2  0  0  0  0
 35 37  1  0  0  0  0
 37 38  1  0  0  0  0
 37 83  1  0  0  0  0
 38 39  1  0  0  0  0
 38 42  1  0  0  0  0
 38 84  1  0  0  0  0
 39 40  1  0  0  0  0
 39 41  1  0  0  0  0
 39 85  1  0  0  0  0
 40 86  1  0  0  0  0
 40 87  1  0  0  0  0
 40 88  1  0  0  0  0
 41 89  1  0  0  0  0
 41 90  1  0  0  0  0
 41 91  1  0  0  0  0
 42 43  2  0  0  0  0
 42 44  1  0  0  0  0
 44 45  1  0  0  0  0
 44 92  1  0  0  0  0
 45 46  1  0  0  0  0
 45 93  1  0  0  0  0
 45 94  1  0  0  0  0
 46 47  1  0  0  0  0
 46 51  2  0  0  0  0
 47 48  2  0  0  0  0
 47 95  1  0  0  0  0
 48 49  1  0  0  0  0
 48 96  1  0  0  0  0
 49 50  2  0  0  0  0
 49 97  1  0  0  0  0
 50 51  1  0  0  0  0
 50 98  1  0  0  0  0
 51 99  1  0  0  0  0
100101  1  0  0  0  0
100102  1  0  0  0  0
100109  2  0  0  0  0
102103  1  0  0  0  0
102104  2  0  0  0  0
104105  1  0  0  0  0
104106  1  0  0  0  0
106107  2  0  0  0  0
107108  1  0  0  0  0
107109  1  0  0  0  0
109110  1  0  0  0  0
M  END
>  <PARENT_CMPD_ID>
CHEMBL1076906

>  <STANDARD_TYPE>
IC50

>  <RELATION>
=

>  <STANDARD_VALUE>
10

>  <STANDARD_UNITS>
nM

>  <COMPOUND_KEY>
35-(S)

>  <PUBMED_ID>
20036448

>  <JOURNAL>
Eur. J. Med. Chem.

>  <YEAR>
2010

>  <VOLUME>
45

>  <FIRST_PAGE>
870

>  <Company>
Medivir

>  <idx>
399

>  <Model>
Valid

>  <target>
8

>  <des_pred_mlr>
8.7427101

>  <RF_Canvas>
7.5928879

>  <DNN_Canvas>
7.3640819

>  <pred_CoMFA>
7.9589

>  <pred_COMSIA>
8.5026999

>  <pred_abm5>
7.7412057

>  <pred_ff8>
6.3106923

>  <pred_gau6>
8.1537495

>  <CID>
BACE_399

>  <active>
1

>  <des_class_bayes>
1

>  <maacs_class_bayes>
1

>  <radial_class_bayes>
1

>  <dend_class_bayes>
1

>  <molprint_class_bayes>
1

>  <RF_canvas>
1

>  <DNN_canvas>
1

$$$$
CHEMBL598290
  MOE2015           3D

 55 58  0  0  1  0  0  0  0  0999 V2000
   16.8640   13.0150   21.1630 C   0  0  0  0  0  0  0  0  0  0  0  0
   17.7090   12.7210   19.9340 C   0  0  0  0  0  0  0  0  0  0  0  0
   18.6210   11.5500   20.1610 C   0  0  0  0  0  0  0  0  0  0  0  0
   19.8610   11.7350   20.7650 C   0  0  0  0  0  0  0  0  0  0  0  0
   20.6870   10.6390   20.9870 C   0  0  0  0  0  0  0  0  0  0  0  0
   20.2200    9.3920   20.5670 C   0  0  0  0  0  0  0  0  0  0  0  0
   18.9660    9.2810   19.9830 C   0  0  0  0  0  0  0  0  0  0  0  0
   18.4640    7.9460   19.5150 C   0  0  0  0  0  0  0  0  0  0  0  0
   18.9520    7.6290   18.1100 C   0  0  0  0  0  0  0  0  0  0  0  0
   18.1640   10.3410   19.7730 N   0  0  0  0  0  0  0  0  0  0  0  0
   22.0880   10.7540   21.5990 C   0  0  3  0  0  0  0  0  0  0  0  0
   22.3210    9.5330   22.4420 N   0  0  0  0  0  0  0  0  0  0  0  0
   22.4870    9.9430   23.6570 C   0  0  0  0  0  0  0  0  0  0  0  0
   22.6640    9.0840   24.6830 N   0  0  0  0  0  0  0  0  0  0  0  0
   22.4380   11.2750   23.8440 N   0  0  0  0  0  0  0  0  0  0  0  0
   22.6140   11.9890   25.0820 C   0  0  0  0  0  0  0  0  0  0  0  0
   22.1880   11.8750   22.6470 C   0  0  0  0  0  0  0  0  0  0  0  0
   22.0980   13.0780   22.4480 O   0  0  0  0  0  0  0  0  0  0  0  0
   23.2080   10.9290   20.5570 C   0  0  0  0  0  0  0  0  0  0  0  0
   22.9580   11.1750   19.2050 C   0  0  0  0  0  0  0  0  0  0  0  0
   23.9990   11.3670   18.3070 C   0  0  0  0  0  0  0  0  0  0  0  0
   25.3150   11.3300   18.7420 C   0  0  0  0  0  0  0  0  0  0  0  0
   25.6180   11.0940   20.0800 C   0  0  0  0  0  0  0  0  0  0  0  0
   24.5510   10.8900   20.9650 C   0  0  0  0  0  0  0  0  0  0  0  0
   27.0030   11.0710   20.5520 C   0  0  0  0  0  0  0  0  0  0  0  0
   27.8970   12.0980   20.2550 C   0  0  0  0  0  0  0  0  0  0  0  0
   29.2010   12.0520   20.7290 C   0  0  0  0  0  0  0  0  0  0  0  0
   29.5860   10.9700   21.4950 C   0  0  0  0  0  0  0  0  0  0  0  0
   28.7680    9.9530   21.8110 N   0  0  0  0  0  0  0  0  0  0  0  0
   27.5090   10.0310   21.3310 C   0  0  0  0  0  0  0  0  0  0  0  0
   26.7020    9.0070   21.6390 F   0  0  0  0  0  0  0  0  0  0  0  0
   16.1960   13.8600   20.9700 H   0  0  0  0  0  0  0  0  0  0  0  0
   17.4890   13.2680   22.0260 H   0  0  0  0  0  0  0  0  0  0  0  0
   16.2480   12.1510   21.4360 H   0  0  0  0  0  0  0  0  0  0  0  0
   18.2950   13.6060   19.6590 H   0  0  0  0  0  0  0  0  0  0  0  0
   17.0510   12.5080   19.0830 H   0  0  0  0  0  0  0  0  0  0  0  0
   20.1690   12.7410   21.0360 H   0  0  0  0  0  0  0  0  0  0  0  0
   20.8360    8.5040   20.6910 H   0  0  0  0  0  0  0  0  0  0  0  0
   18.7810    7.1610   20.2110 H   0  0  0  0  0  0  0  0  0  0  0  0
   17.3670    7.9470   19.5260 H   0  0  0  0  0  0  0  0  0  0  0  0
   20.0460    7.5840   18.0690 H   0  0  0  0  0  0  0  0  0  0  0  0
   18.6200    8.3880   17.3940 H   0  0  0  0  0  0  0  0  0  0  0  0
   18.5610    6.6600   17.7830 H   0  0  0  0  0  0  0  0  0  0  0  0
   22.6840    8.0920   24.4790 H   0  0  0  0  0  0  0  0  0  0  0  0
   22.7740    9.3740   25.6430 H   0  0  0  0  0  0  0  0  0  0  0  0
   21.8300   11.6810   25.7800 H   0  0  0  0  0  0  0  0  0  0  0  0
   22.5650   13.0700   24.9290 H   0  0  0  0  0  0  0  0  0  0  0  0
   23.5820   11.7200   25.5130 H   0  0  0  0  0  0  0  0  0  0  0  0
   21.9450   11.2260   18.8120 H   0  0  0  0  0  0  0  0  0  0  0  0
   23.7810   11.5520   17.2580 H   0  0  0  0  0  0  0  0  0  0  0  0
   26.1090   11.4810   18.0120 H   0  0  0  0  0  0  0  0  0  0  0  0
   24.7760   10.7030   22.0150 H   0  0  0  0  0  0  0  0  0  0  0  0
   27.5830   12.9540   19.6610 H   0  0  0  0  0  0  0  0  0  0  0  0
   29.9020   12.8490   20.5050 H   0  0  0  0  0  0  0  0  0  0  0  0
   30.5970   10.8930   21.8860 H   0  0  0  0  0  0  0  0  0  0  0  0
  1  2  1  0  0  0  0
  1 32  1  0  0  0  0
  1 33  1  0  0  0  0
  1 34  1  0  0  0  0
  2  3  1  0  0  0  0
  2 35  1  0  0  0  0
  2 36  1  0  0  0  0
  3  4  1  0  0  0  0
  3 10  2  0  0  0  0
  4  5  2  0  0  0  0
  4 37  1  0  0  0  0
  5  6  1  0  0  0  0
  5 11  1  0  0  0  0
  6  7  2  0  0  0  0
  6 38  1  0  0  0  0
  7  8  1  0  0  0  0
  7 10  1  0  0  0  0
  8  9  1  0  0  0  0
  8 39  1  0  0  0  0
  8 40  1  0  0  0  0
  9 41  1  0  0  0  0
  9 42  1  0  0  0  0
  9 43  1  0  0  0  0
 11 12  1  0  0  0  0
 11 17  1  0  0  0  0
 11 19  1  0  0  0  0
 12 13  2  0  0  0  0
 13 14  1  0  0  0  0
 13 15  1  0  0  0  0
 14 44  1  0  0  0  0
 14 45  1  0  0  0  0
 15 16  1  0  0  0  0
 15 17  1  0  0  0  0
 16 46  1  0  0  0  0
 16 47  1  0  0  0  0
 16 48  1  0  0  0  0
 17 18  2  0  0  0  0
 19 20  1  0  0  0  0
 19 24  2  0  0  0  0
 20 21  2  0  0  0  0
 20 49  1  0  0  0  0
 21 22  1  0  0  0  0
 21 50  1  0  0  0  0
 22 23  2  0  0  0  0
 22 51  1  0  0  0  0
 23 24  1  0  0  0  0
 23 25  1  0  0  0  0
 24 52  1  0  0  0  0
 25 26  1  0  0  0  0
 25 30  2  0  0  0  0
 26 27  2  0  0  0  0
 26 53  1  0  0  0  0
 27 28  1  0  0  0  0
 27 54  1  0  0  0  0
 28 29  2  0  0  0  0
 28 55  1  0  0  0  0
 29 30  1  0  0  0  0
 30 31  1  0  0  0  0
M  END
>  <PARENT_CMPD_ID>
CHEMBL598290

>  <STANDARD_TYPE>
IC50

>  <RELATION>
=

>  <STANDARD_VALUE>
10

>  <STANDARD_UNITS>
nM

>  <COMPOUND_KEY>
S-39

>  <PUBMED_ID>
20045648

>  <JOURNAL>
Bioorg. Med. Chem.

>  <YEAR>
2010

>  <VOLUME>
18

>  <FIRST_PAGE>
630

>  <Company>
Wyeth

>  <idx>
400

>  <Model>
Valid

>  <target>
8

>  <des_pred_mlr>
6.75598

>  <RF_Canvas>
7.598618

>  <DNN_Canvas>
7.6889157

>  <pred_CoMFA>
8.3600998

>  <pred_COMSIA>
7.8397999

>  <pred_abm5>
7.974999

>  <pred_ff8>
6.7510738

>  <pred_gau6>
7.8569303

>  <CID>
BACE_400

>  <active>
1

>  <des_class_bayes>
1

>  <maacs_class_bayes>
1

>  <radial_class_bayes>
0

>  <dend_class_bayes>
0

>  <molprint_class_bayes>
1

>  <RF_canvas>
1

>  <DNN_canvas>
1

$$$$
CHEMBL1210347
  MOE2015           3D

 86 89  0  0  1  0  0  0  0  0999 V2000
   20.9260   12.3020   27.6030 C   0  0  0  0  0  0  0  0  0  0  0  0
   20.2640   11.1570   26.8570 C   0  0  3  0  0  0  0  0  0  0  0  0
   21.2670   10.3660   26.1000 N   0  3  0  0  0  0  0  0  0  0  0  0
   21.8970   11.1270   25.0050 C   0  0  0  0  0  0  0  0  0  0  0  0
   22.4530   10.1390   23.9780 C   0  0  3  0  0  0  0  0  0  0  0  0
   21.3320    9.3440   23.5740 O   0  0  0  0  0  0  0  0  0  0  0  0
   23.1060   10.8440   22.7960 C   0  0  3  0  0  0  0  0  0  0  0  0
   23.4280    9.8950   21.6440 C   0  0  0  0  0  0  0  0  0  0  0  0
   24.3110   10.5370   20.6000 C   0  0  0  0  0  0  0  0  0  0  0  0
   23.9700   11.7390   19.9960 C   0  0  0  0  0  0  0  0  0  0  0  0
   24.8050   12.3030   19.0450 C   0  0  0  0  0  0  0  0  0  0  0  0
   25.9840   11.6730   18.6870 C   0  0  0  0  0  0  0  0  0  0  0  0
   26.3250   10.4770   19.2830 C   0  0  0  0  0  0  0  0  0  0  0  0
   25.4930    9.9130   20.2330 C   0  0  0  0  0  0  0  0  0  0  0  0
   24.3240   11.5430   23.2230 N   0  0  0  0  0  0  0  0  0  0  0  0
   24.3340   12.9010   23.3860 C   0  0  0  0  0  0  0  0  0  0  0  0
   23.3260   13.6080   23.3880 O   0  0  0  0  0  0  0  0  0  0  0  0
   25.6870   13.4610   23.5640 C   0  0  0  0  0  0  0  0  0  0  0  0
   26.7520   12.9530   22.8410 C   0  0  0  0  0  0  0  0  0  0  0  0
   28.0260   13.4740   23.0230 C   0  0  0  0  0  0  0  0  0  0  0  0
   28.2310   14.5110   23.9240 C   0  0  0  0  0  0  0  0  0  0  0  0
   27.1480   15.0100   24.6360 C   0  0  0  0  0  0  0  0  0  0  0  0
   25.8780   14.4890   24.4640 C   0  0  0  0  0  0  0  0  0  0  0  0
   27.2970   16.0860   25.5750 N   0  0  0  0  0  0  0  0  0  0  0  0
   26.4820   17.2510   25.3990 C   0  0  0  0  0  0  0  0  0  0  0  0
   26.6630   18.0220   24.2710 C   0  0  0  0  0  0  0  0  0  0  0  0
   25.8640   19.1370   24.1070 C   0  0  0  0  0  0  0  0  0  0  0  0
   24.9250   19.4590   25.0620 C   0  0  0  0  0  0  0  0  0  0  0  0
   24.7560   18.6790   26.1830 C   0  0  0  0  0  0  0  0  0  0  0  0
   25.5390   17.5590   26.3600 C   0  0  0  0  0  0  0  0  0  0  0  0
   28.6320   16.2090   26.6040 S   0  0  0  0  0  0  0  0  0  0  0  0
   29.7320   17.2750   25.7120 C   0  0  0  0  0  0  0  0  0  0  0  0
   29.2570   14.9140   26.6820 O   0  0  0  0  0  0  0  0  0  0  0  0
   28.2360   16.9430   27.7840 O   0  0  0  0  0  0  0  0  0  0  0  0
   19.1940   11.6850   25.9180 C   0  0  0  0  0  0  0  0  0  0  0  0
   19.1500   12.8440   25.5090 O   0  0  0  0  0  0  0  0  0  0  0  0
   18.2590   10.7320   25.5800 N   0  0  0  0  0  0  0  0  0  0  0  0
   17.1780   11.0790   24.6520 C   0  0  0  0  0  0  0  0  0  0  0  0
   16.9820    9.9360   23.6870 C   0  0  0  0  0  0  0  0  0  0  0  0
   15.8540   10.1920   22.6900 C   0  0  0  0  0  0  0  0  0  0  0  0
   14.5580   10.4610   23.4320 C   0  0  0  0  0  0  0  0  0  0  0  0
   14.7700   11.6410   24.3720 C   0  0  0  0  0  0  0  0  0  0  0  0
   15.8730   11.3210   25.3830 C   0  0  0  0  0  0  0  0  0  0  0  0
   21.6900   11.9060   28.2720 H   0  0  0  0  0  0  0  0  0  0  0  0
   20.1760   12.8380   28.1850 H   0  0  0  0  0  0  0  0  0  0  0  0
   21.3860   12.9840   26.8880 H   0  0  0  0  0  0  0  0  0  0  0  0
   19.7950   10.5010   27.5910 H   0  0  0  0  0  0  0  0  0  0  0  0
   20.8080    9.5570   25.7070 H   0  0  0  0  0  0  0  0  0  0  0  0
   21.9890   10.0660   26.7400 H   0  0  0  0  0  0  0  0  0  0  0  0
   22.7070   11.7380   25.4020 H   0  0  0  0  0  0  0  0  0  0  0  0
   21.1550   11.7700   24.5310 H   0  0  0  0  0  0  0  0  0  0  0  0
   23.2470    9.5260   24.4060 H   0  0  0  0  0  0  0  0  0  0  0  0
   20.6720    9.9370   23.2080 H   0  0  0  0  0  0  0  0  0  0  0  0
   22.3790   11.5660   22.4250 H   0  0  0  0  0  0  0  0  0  0  0  0
   22.4950    9.5870   21.1720 H   0  0  0  0  0  0  0  0  0  0  0  0
   23.9390    9.0190   22.0440 H   0  0  0  0  0  0  0  0  0  0  0  0
   23.0510   12.2360   20.2680 H   0  0  0  0  0  0  0  0  0  0  0  0
   24.5340   13.2400   18.5800 H   0  0  0  0  0  0  0  0  0  0  0  0
   26.6330   12.1150   17.9460 H   0  0  0  0  0  0  0  0  0  0  0  0
   27.2430    9.9800   19.0070 H   0  0  0  0  0  0  0  0  0  0  0  0
   25.7670    8.9760   20.6940 H   0  0  0  0  0  0  0  0  0  0  0  0
   25.1660   11.0140   23.3990 H   0  0  0  0  0  0  0  0  0  0  0  0
   26.5920   12.1510   22.1350 H   0  0  0  0  0  0  0  0  0  0  0  0
   28.8580   13.0730   22.4640 H   0  0  0  0  0  0  0  0  0  0  0  0
   29.2190   14.9230   24.0690 H   0  0  0  0  0  0  0  0  0  0  0  0
   25.0450   14.8830   25.0280 H   0  0  0  0  0  0  0  0  0  0  0  0
   27.4090   17.7620   23.5350 H   0  0  0  0  0  0  0  0  0  0  0  0
   25.9760   19.7570   23.2290 H   0  0  0  0  0  0  0  0  0  0  0  0
   23.9480   20.8600   24.8500 Cl  0  0  0  0  0  0  0  0  0  0  0  0
   24.0130   18.9430   26.9210 H   0  0  0  0  0  0  0  0  0  0  0  0
   25.4180   16.9340   27.2330 H   0  0  0  0  0  0  0  0  0  0  0  0
   30.0680   16.7730   24.8040 H   0  0  0  0  0  0  0  0  0  0  0  0
   30.5940   17.5120   26.3360 H   0  0  0  0  0  0  0  0  0  0  0  0
   29.2110   18.1950   25.4470 H   0  0  0  0  0  0  0  0  0  0  0  0
   18.3170    9.8010   25.9680 H   0  0  0  0  0  0  0  0  0  0  0  0
   17.4570   11.9950   24.1300 H   0  0  0  0  0  0  0  0  0  0  0  0
   16.7470    9.0360   24.2560 H   0  0  0  0  0  0  0  0  0  0  0  0
   17.9090    9.7840   23.1330 H   0  0  0  0  0  0  0  0  0  0  0  0
   15.7300    9.3170   22.0520 H   0  0  0  0  0  0  0  0  0  0  0  0
   16.1040   11.0570   22.0750 H   0  0  0  0  0  0  0  0  0  0  0  0
   14.2750    9.5800   24.0080 H   0  0  0  0  0  0  0  0  0  0  0  0
   13.7690   10.6980   22.7180 H   0  0  0  0  0  0  0  0  0  0  0  0
   13.8420   11.8480   24.9050 H   0  0  0  0  0  0  0  0  0  0  0  0
   15.0580   12.5170   23.7910 H   0  0  0  0  0  0  0  0  0  0  0  0
   15.9910   12.1600   26.0680 H   0  0  0  0  0  0  0  0  0  0  0  0
   15.6010   10.4280   25.9460 H   0  0  0  0  0  0  0  0  0  0  0  0
  1  2  1  0  0  0  0
  1 44  1  0  0  0  0
  1 45  1  0  0  0  0
  1 46  1  0  0  0  0
  2  3  1  0  0  0  0
  2 35  1  0  0  0  0
  2 47  1  0  0  0  0
  3  4  1  0  0  0  0
  3 48  1  0  0  0  0
  3 49  1  0  0  0  0
  4  5  1  0  0  0  0
  4 50  1  0  0  0  0
  4 51  1  0  0  0  0
  5  6  1  0  0  0  0
  5  7  1  0  0  0  0
  5 52  1  0  0  0  0
  6 53  1  0  0  0  0
  7  8  1  0  0  0  0
  7 15  1  0  0  0  0
  7 54  1  0  0  0  0
  8  9  1  0  0  0  0
  8 55  1  0  0  0  0
  8 56  1  0  0  0  0
  9 10  1  0  0  0  0
  9 14  2  0  0  0  0
 10 11  2  0  0  0  0
 10 57  1  0  0  0  0
 11 12  1  0  0  0  0
 11 58  1  0  0  0  0
 12 13  2  0  0  0  0
 12 59  1  0  0  0  0
 13 14  1  0  0  0  0
 13 60  1  0  0  0  0
 14 61  1  0  0  0  0
 15 16  1  0  0  0  0
 15 62  1  0  0  0  0
 16 17  2  0  0  0  0
 16 18  1  0  0  0  0
 18 19  1  0  0  0  0
 18 23  2  0  0  0  0
 19 20  2  0  0  0  0
 19 63  1  0  0  0  0
 20 21  1  0  0  0  0
 20 64  1  0  0  0  0
 21 22  2  0  0  0  0
 21 65  1  0  0  0  0
 22 23  1  0  0  0  0
 22 24  1  0  0  0  0
 23 66  1  0  0  0  0
 24 25  1  0  0  0  0
 24 31  1  0  0  0  0
 25 26  1  0  0  0  0
 25 30  2  0  0  0  0
 26 27  2  0  0  0  0
 26 67  1  0  0  0  0
 27 28  1  0  0  0  0
 27 68  1  0  0  0  0
 28 29  2  0  0  0  0
 28 69  1  0  0  0  0
 29 30  1  0  0  0  0
 29 70  1  0  0  0  0
 30 71  1  0  0  0  0
 31 32  1  0  0  0  0
 31 33  2  0  0  0  0
 31 34  2  0  0  0  0
 32 72  1  0  0  0  0
 32 73  1  0  0  0  0
 32 74  1  0  0  0  0
 35 36  2  0  0  0  0
 35 37  1  0  0  0  0
 37 38  1  0  0  0  0
 37 75  1  0  0  0  0
 38 39  1  0  0  0  0
 38 43  1  0  0  0  0
 38 76  1  0  0  0  0
 39 40  1  0  0  0  0
 39 77  1  0  0  0  0
 39 78  1  0  0  0  0
 40 41  1  0  0  0  0
 40 79  1  0  0  0  0
 40 80  1  0  0  0  0
 41 42  1  0  0  0  0
 41 81  1  0  0  0  0
 41 82  1  0  0  0  0
 42 43  1  0  0  0  0
 42 83  1  0  0  0  0
 42 84  1  0  0  0  0
 43 85  1  0  0  0  0
 43 86  1  0  0  0  0
M  CHG  1   3   1
M  END
>  <PARENT_CMPD_ID>
CHEMBL1210347

>  <STANDARD_TYPE>
IC50

>  <RELATION>
=

>  <STANDARD_VALUE>
10

>  <STANDARD_UNITS>
nM

>  <COMPOUND_KEY>
26

>  <PUBMED_ID>
20579874

>  <JOURNAL>
Bioorg. Med. Chem. Lett.

>  <YEAR>
2010

>  <VOLUME>
20

>  <FIRST_PAGE>
4639

>  <Company>
GSK

>  <idx>
401

>  <Model>
Valid

>  <target>
8

>  <des_pred_mlr>
7.6184802

>  <RF_Canvas>
7.8748875

>  <DNN_Canvas>
7.6239424

>  <pred_CoMFA>
7.7244

>  <pred_COMSIA>
8.1141005

>  <pred_abm5>
7.7451687

>  <pred_ff8>
8.0404367

>  <pred_gau6>
7.904635

>  <CID>
BACE_401

>  <active>
1

>  <des_class_bayes>
0

>  <maacs_class_bayes>
1

>  <radial_class_bayes>
1

>  <dend_class_bayes>
1

>  <molprint_class_bayes>
1

>  <RF_canvas>
1

>  <DNN_canvas>
1

$$$$
CHEMBL1271244
  MOE2015           3D

 48 51  0  0  1  0  0  0  0  0999 V2000
   22.5400   11.8480   25.0860 C   0  0  0  0  0  0  0  0  0  0  0  0
   22.3280   11.0830   23.8830 N   0  0  0  0  0  0  0  0  0  0  0  0
   22.4550    9.7520   23.7310 C   0  0  0  0  0  0  0  0  0  0  0  0
   22.2340    9.2920   22.5420 N   0  0  0  0  0  0  0  0  0  0  0  0
   21.8960   10.4720   21.6710 C   0  0  2  0  0  0  0  0  0  0  0  0
   21.9610   11.6270   22.6880 C   0  0  0  0  0  0  0  0  0  0  0  0
   21.7710   12.8130   22.4580 O   0  0  0  0  0  0  0  0  0  0  0  0
   20.4960   10.2470   21.0810 C   0  0  0  0  0  0  0  0  0  0  0  0
   19.5190   11.2420   21.0210 C   0  0  0  0  0  0  0  0  0  0  0  0
   18.2740   10.9920   20.4500 C   0  0  0  0  0  0  0  0  0  0  0  0
   17.9640    9.7410   19.9270 C   0  0  0  0  0  0  0  0  0  0  0  0
   16.7210    9.6250   19.3780 O   0  0  0  0  0  0  0  0  0  0  0  0
   16.1770    8.3180   19.3560 C   0  0  0  0  0  0  0  0  0  0  0  0
   16.6140    7.6800   18.2470 F   0  0  0  0  0  0  0  0  0  0  0  0
   14.8350    8.4390   19.2230 F   0  0  0  0  0  0  0  0  0  0  0  0
   18.9300    8.7450   19.9580 C   0  0  0  0  0  0  0  0  0  0  0  0
   20.1750    8.9980   20.5310 C   0  0  0  0  0  0  0  0  0  0  0  0
   22.9930   10.6990   20.6060 C   0  0  0  0  0  0  0  0  0  0  0  0
   22.7470   11.2220   19.3370 C   0  0  0  0  0  0  0  0  0  0  0  0
   23.7980   11.4780   18.4530 C   0  0  0  0  0  0  0  0  0  0  0  0
   25.1210   11.2590   18.8290 C   0  0  0  0  0  0  0  0  0  0  0  0
   25.4140   10.7780   20.1010 C   0  0  0  0  0  0  0  0  0  0  0  0
   24.3350   10.4720   20.9460 C   0  0  0  0  0  0  0  0  0  0  0  0
   26.7860   10.6660   20.6140 C   0  0  0  0  0  0  0  0  0  0  0  0
   27.8080   10.0210   19.9310 C   0  0  0  0  0  0  0  0  0  0  0  0
   29.0810    9.9170   20.4960 C   0  0  0  0  0  0  0  0  0  0  0  0
   29.3100   10.4690   21.7400 C   0  0  0  0  0  0  0  0  0  0  0  0
   28.3670   11.1200   22.4380 N   0  0  0  0  0  0  0  0  0  0  0  0
   27.1440   11.2030   21.8590 C   0  0  0  0  0  0  0  0  0  0  0  0
   26.2150   11.8670   22.5690 F   0  0  0  0  0  0  0  0  0  0  0  0
   22.8050    8.9440   24.7550 N   0  0  0  0  0  0  0  0  0  0  0  0
   21.8620   11.4810   25.8620 H   0  0  0  0  0  0  0  0  0  0  0  0
   22.3650   12.9140   24.9170 H   0  0  0  0  0  0  0  0  0  0  0  0
   23.5680   11.6920   25.4270 H   0  0  0  0  0  0  0  0  0  0  0  0
   19.7060   12.2440   21.3990 H   0  0  0  0  0  0  0  0  0  0  0  0
   17.5350   11.7900   20.4110 H   0  0  0  0  0  0  0  0  0  0  0  0
   16.3870    7.7280   20.2560 H   0  0  0  0  0  0  0  0  0  0  0  0
   18.7570    7.7660   19.5210 H   0  0  0  0  0  0  0  0  0  0  0  0
   20.9180    8.2000   20.5390 H   0  0  0  0  0  0  0  0  0  0  0  0
   21.7350   11.4490   19.0100 H   0  0  0  0  0  0  0  0  0  0  0  0
   23.5810   11.8810   17.4660 H   0  0  0  0  0  0  0  0  0  0  0  0
   25.9160   11.5150   18.1330 H   0  0  0  0  0  0  0  0  0  0  0  0
   24.5620   10.0760   21.9370 H   0  0  0  0  0  0  0  0  0  0  0  0
   27.6250    9.5690   18.9580 H   0  0  0  0  0  0  0  0  0  0  0  0
   29.8780    9.4050   19.9660 H   0  0  0  0  0  0  0  0  0  0  0  0
   30.2850   10.4060   22.2140 H   0  0  0  0  0  0  0  0  0  0  0  0
   22.8900    7.9510   24.5780 H   0  0  0  0  0  0  0  0  0  0  0  0
   22.9870    9.2780   25.6910 H   0  0  0  0  0  0  0  0  0  0  0  0
  1  2  1  0  0  0  0
  1 32  1  0  0  0  0
  1 33  1  0  0  0  0
  1 34  1  0  0  0  0
  2  3  1  0  0  0  0
  2  6  1  0  0  0  0
  3  4  2  0  0  0  0
  3 31  1  0  0  0  0
  4  5  1  0  0  0  0
  5  6  1  0  0  0  0
  5  8  1  0  0  0  0
  5 18  1  0  0  0  0
  6  7  2  0  0  0  0
  8  9  1  0  0  0  0
  8 17  2  0  0  0  0
  9 10  2  0  0  0  0
  9 35  1  0  0  0  0
 10 11  1  0  0  0  0
 10 36  1  0  0  0  0
 11 12  1  0  0  0  0
 11 16  2  0  0  0  0
 12 13  1  0  0  0  0
 13 14  1  0  0  0  0
 13 15  1  0  0  0  0
 13 37  1  0  0  0  0
 16 17  1  0  0  0  0
 16 38  1  0  0  0  0
 17 39  1  0  0  0  0
 18 19  1  0  0  0  0
 18 23  2  0  0  0  0
 19 20  2  0  0  0  0
 19 40  1  0  0  0  0
 20 21  1  0  0  0  0
 20 41  1  0  0  0  0
 21 22  2  0  0  0  0
 21 42  1  0  0  0  0
 22 23  1  0  0  0  0
 22 24  1  0  0  0  0
 23 43  1  0  0  0  0
 24 25  1  0  0  0  0
 24 29  2  0  0  0  0
 25 26  2  0  0  0  0
 25 44  1  0  0  0  0
 26 27  1  0  0  0  0
 26 45  1  0  0  0  0
 27 28  2  0  0  0  0
 27 46  1  0  0  0  0
 28 29  1  0  0  0  0
 29 30  1  0  0  0  0
 31 47  1  0  0  0  0
 31 48  1  0  0  0  0
M  END
>  <PARENT_CMPD_ID>
CHEMBL1271244

>  <STANDARD_TYPE>
IC50

>  <RELATION>
=

>  <STANDARD_VALUE>
10

>  <STANDARD_UNITS>
nM

>  <COMPOUND_KEY>
31

>  <PUBMED_ID>
20880704

>  <JOURNAL>
Bioorg. Med. Chem. Lett.

>  <YEAR>
2010

>  <VOLUME>
20

>  <FIRST_PAGE>
6597

>  <Company>
Pfizer

>  <idx>
402

>  <Model>
Valid

>  <target>
8

>  <des_pred_mlr>
6.4926701

>  <RF_Canvas>
7.4344454

>  <DNN_Canvas>
7.2146721

>  <pred_CoMFA>
6.9513998

>  <pred_COMSIA>
6.4004002

>  <pred_abm5>
7.1471987

>  <pred_ff8>
6.9234076

>  <pred_gau6>
7.0527816

>  <CID>
BACE_402

>  <active>
1

>  <des_class_bayes>
1

>  <maacs_class_bayes>
1

>  <radial_class_bayes>
1

>  <dend_class_bayes>
0

>  <molprint_class_bayes>
1

>  <RF_canvas>
1

>  <DNN_canvas>
1

$$$$
CHEMBL1271037
  MOE2015           3D

 44 46  0  0  1  0  0  0  0  0999 V2000
   22.5530   11.8500   25.0960 C   0  0  0  0  0  0  0  0  0  0  0  0
   22.3510   11.0900   23.8880 N   0  0  0  0  0  0  0  0  0  0  0  0
   22.4870    9.7600   23.7290 C   0  0  0  0  0  0  0  0  0  0  0  0
   22.2700    9.3040   22.5380 N   0  0  0  0  0  0  0  0  0  0  0  0
   21.9200   10.4860   21.6770 C   0  0  2  0  0  0  0  0  0  0  0  0
   21.9830   11.6360   22.6950 C   0  0  0  0  0  0  0  0  0  0  0  0
   21.7820   12.8210   22.4680 O   0  0  0  0  0  0  0  0  0  0  0  0
   20.5100   10.2510   21.1000 C   0  0  0  0  0  0  0  0  0  0  0  0
   19.5250   11.2390   21.0540 C   0  0  0  0  0  0  0  0  0  0  0  0
   18.2800   10.9860   20.4780 C   0  0  0  0  0  0  0  0  0  0  0  0
   17.9800    9.7400   19.9400 C   0  0  0  0  0  0  0  0  0  0  0  0
   16.7390    9.6230   19.3850 O   0  0  0  0  0  0  0  0  0  0  0  0
   16.1990    8.3160   19.3580 C   0  0  0  0  0  0  0  0  0  0  0  0
   16.6350    7.6840   18.2440 F   0  0  0  0  0  0  0  0  0  0  0  0
   14.8550    8.4340   19.2260 F   0  0  0  0  0  0  0  0  0  0  0  0
   18.9530    8.7510   19.9620 C   0  0  0  0  0  0  0  0  0  0  0  0
   20.1980    9.0060   20.5370 C   0  0  0  0  0  0  0  0  0  0  0  0
   22.9930   10.7300   20.5910 C   0  0  0  0  0  0  0  0  0  0  0  0
   22.6880   11.3090   19.3540 C   0  0  0  0  0  0  0  0  0  0  0  0
   23.6810   11.5720   18.4100 C   0  0  0  0  0  0  0  0  0  0  0  0
   25.0100   11.2850   18.6840 C   0  0  0  0  0  0  0  0  0  0  0  0
   25.3440   10.7310   19.9100 C   0  0  0  0  0  0  0  0  0  0  0  0
   24.3460   10.4530   20.8470 C   0  0  0  0  0  0  0  0  0  0  0  0
   26.7110   10.4790   20.2370 C   0  0  0  0  0  0  0  0  0  0  0  0
   27.8520   10.3010   20.5670 C   0  0  0  0  0  0  0  0  0  0  0  0
   29.2260   10.1180   21.0160 C   0  0  0  0  0  0  0  0  0  0  0  0
   29.2250    9.9250   22.3620 F   0  0  0  0  0  0  0  0  0  0  0  0
   22.8320    8.9480   24.7520 N   0  0  0  0  0  0  0  0  0  0  0  0
   21.8680   11.4800   25.8640 H   0  0  0  0  0  0  0  0  0  0  0  0
   22.3800   12.9160   24.9290 H   0  0  0  0  0  0  0  0  0  0  0  0
   23.5780   11.6920   25.4450 H   0  0  0  0  0  0  0  0  0  0  0  0
   19.7020   12.2380   21.4440 H   0  0  0  0  0  0  0  0  0  0  0  0
   17.5360   11.7800   20.4490 H   0  0  0  0  0  0  0  0  0  0  0  0
   16.4100    7.7210   20.2540 H   0  0  0  0  0  0  0  0  0  0  0  0
   18.7880    7.7760   19.5120 H   0  0  0  0  0  0  0  0  0  0  0  0
   20.9470    8.2140   20.5320 H   0  0  0  0  0  0  0  0  0  0  0  0
   21.6650   11.5790   19.0990 H   0  0  0  0  0  0  0  0  0  0  0  0
   23.4110   12.0190   17.4560 H   0  0  0  0  0  0  0  0  0  0  0  0
   25.7740   11.5090   17.9450 H   0  0  0  0  0  0  0  0  0  0  0  0
   24.6400   10.0230   21.8030 H   0  0  0  0  0  0  0  0  0  0  0  0
   29.8400   10.9960   20.8030 H   0  0  0  0  0  0  0  0  0  0  0  0
   29.6880    9.2430   20.5520 H   0  0  0  0  0  0  0  0  0  0  0  0
   22.9220    7.9560   24.5700 H   0  0  0  0  0  0  0  0  0  0  0  0
   23.0080    9.2770   25.6900 H   0  0  0  0  0  0  0  0  0  0  0  0
  1  2  1  0  0  0  0
  1 29  1  0  0  0  0
  1 30  1  0  0  0  0
  1 31  1  0  0  0  0
  2  3  1  0  0  0  0
  2  6  1  0  0  0  0
  3  4  2  0  0  0  0
  3 28  1  0  0  0  0
  4  5  1  0  0  0  0
  5  6  1  0  0  0  0
  5  8  1  0  0  0  0
  5 18  1  0  0  0  0
  6  7  2  0  0  0  0
  8  9  1  0  0  0  0
  8 17  2  0  0  0  0
  9 10  2  0  0  0  0
  9 32  1  0  0  0  0
 10 11  1  0  0  0  0
 10 33  1  0  0  0  0
 11 12  1  0  0  0  0
 11 16  2  0  0  0  0
 12 13  1  0  0  0  0
 13 14  1  0  0  0  0
 13 15  1  0  0  0  0
 13 34  1  0  0  0  0
 16 17  1  0  0  0  0
 16 35  1  0  0  0  0
 17 36  1  0  0  0  0
 18 19  1  0  0  0  0
 18 23  2  0  0  0  0
 19 20  2  0  0  0  0
 19 37  1  0  0  0  0
 20 21  1  0  0  0  0
 20 38  1  0  0  0  0
 21 22  2  0  0  0  0
 21 39  1  0  0  0  0
 22 23  1  0  0  0  0
 22 24  1  0  0  0  0
 23 40  1  0  0  0  0
 24 25  3  0  0  0  0
 25 26  1  0  0  0  0
 26 27  1  0  0  0  0
 26 41  1  0  0  0  0
 26 42  1  0  0  0  0
 28 43  1  0  0  0  0
 28 44  1  0  0  0  0
M  END
>  <PARENT_CMPD_ID>
CHEMBL1271037

>  <STANDARD_TYPE>
IC50

>  <RELATION>
=

>  <STANDARD_VALUE>
10

>  <STANDARD_UNITS>
nM

>  <COMPOUND_KEY>
61

>  <PUBMED_ID>
20880704

>  <JOURNAL>
Bioorg. Med. Chem. Lett.

>  <YEAR>
2010

>  <VOLUME>
20

>  <FIRST_PAGE>
6597

>  <Company>
Pfizer

>  <idx>
403

>  <Model>
Valid

>  <target>
8

>  <des_pred_mlr>
6.1504002

>  <RF_Canvas>
7.0380158

>  <DNN_Canvas>
7.1917896

>  <pred_CoMFA>
6.7286

>  <pred_COMSIA>
6.1940999

>  <pred_abm5>
7.0800352

>  <pred_ff8>
6.7800131

>  <pred_gau6>
6.989718

>  <CID>
BACE_403

>  <active>
1

>  <des_class_bayes>
1

>  <maacs_class_bayes>
1

>  <radial_class_bayes>
1

>  <dend_class_bayes>
1

>  <molprint_class_bayes>
1

>  <RF_canvas>
1

>  <DNN_canvas>
1

$$$$
CHEMBL1271141
  MOE2015           3D

 47 49  0  0  1  0  0  0  0  0999 V2000
   22.5520   11.8520   25.0900 C   0  0  0  0  0  0  0  0  0  0  0  0
   22.3460   11.0940   23.8820 N   0  0  0  0  0  0  0  0  0  0  0  0
   22.4860    9.7650   23.7190 C   0  0  0  0  0  0  0  0  0  0  0  0
   22.2660    9.3120   22.5270 N   0  0  0  0  0  0  0  0  0  0  0  0
   21.8960   10.4930   21.6730 C   0  0  2  0  0  0  0  0  0  0  0  0
   21.9670   11.6420   22.6920 C   0  0  0  0  0  0  0  0  0  0  0  0
   21.7630   12.8260   22.4690 O   0  0  0  0  0  0  0  0  0  0  0  0
   20.4830   10.2500   21.1130 C   0  0  0  0  0  0  0  0  0  0  0  0
   19.4940   11.2350   21.0710 C   0  0  0  0  0  0  0  0  0  0  0  0
   18.2540   10.9820   20.4890 C   0  0  0  0  0  0  0  0  0  0  0  0
   17.9600    9.7380   19.9430 C   0  0  0  0  0  0  0  0  0  0  0  0
   16.7230    9.6200   19.3820 O   0  0  0  0  0  0  0  0  0  0  0  0
   16.1840    8.3120   19.3530 C   0  0  0  0  0  0  0  0  0  0  0  0
   16.6250    7.6810   18.2410 F   0  0  0  0  0  0  0  0  0  0  0  0
   14.8420    8.4290   19.2180 F   0  0  0  0  0  0  0  0  0  0  0  0
   18.9350    8.7510   19.9630 C   0  0  0  0  0  0  0  0  0  0  0  0
   20.1770    9.0060   20.5430 C   0  0  0  0  0  0  0  0  0  0  0  0
   22.9410   10.7490   20.5660 C   0  0  0  0  0  0  0  0  0  0  0  0
   22.6020   11.3380   19.3410 C   0  0  0  0  0  0  0  0  0  0  0  0
   23.5670   11.6100   18.3710 C   0  0  0  0  0  0  0  0  0  0  0  0
   24.9020   11.3240   18.6060 C   0  0  0  0  0  0  0  0  0  0  0  0
   25.2640   10.7630   19.8180 C   0  0  0  0  0  0  0  0  0  0  0  0
   24.2960   10.4740   20.7840 C   0  0  0  0  0  0  0  0  0  0  0  0
   26.6330   10.5110   20.1100 C   0  0  0  0  0  0  0  0  0  0  0  0
   27.7630   10.3240   20.4600 C   0  0  0  0  0  0  0  0  0  0  0  0
   29.0810   10.1090   21.0500 C   0  0  0  0  0  0  0  0  0  0  0  0
   28.9270    9.7770   22.5190 C   0  0  0  0  0  0  0  0  0  0  0  0
   30.1490    9.5890   23.0600 F   0  0  0  0  0  0  0  0  0  0  0  0
   22.8360    8.9520   24.7390 N   0  0  0  0  0  0  0  0  0  0  0  0
   22.3830   12.9190   24.9240 H   0  0  0  0  0  0  0  0  0  0  0  0
   23.5760   11.6890   25.4390 H   0  0  0  0  0  0  0  0  0  0  0  0
   21.8650   11.4850   25.8580 H   0  0  0  0  0  0  0  0  0  0  0  0
   19.6680   12.2340   21.4650 H   0  0  0  0  0  0  0  0  0  0  0  0
   17.5070   11.7730   20.4600 H   0  0  0  0  0  0  0  0  0  0  0  0
   16.3940    7.7180   20.2500 H   0  0  0  0  0  0  0  0  0  0  0  0
   18.7740    7.7780   19.5070 H   0  0  0  0  0  0  0  0  0  0  0  0
   20.9300    8.2180   20.5330 H   0  0  0  0  0  0  0  0  0  0  0  0
   21.5730   11.6080   19.1140 H   0  0  0  0  0  0  0  0  0  0  0  0
   23.2700   12.0630   17.4290 H   0  0  0  0  0  0  0  0  0  0  0  0
   25.6470   11.5540   17.8490 H   0  0  0  0  0  0  0  0  0  0  0  0
   24.6170   10.0360   21.7280 H   0  0  0  0  0  0  0  0  0  0  0  0
   29.7080   11.0010   20.9380 H   0  0  0  0  0  0  0  0  0  0  0  0
   29.6080    9.2950   20.5410 H   0  0  0  0  0  0  0  0  0  0  0  0
   28.3470    8.8600   22.6690 H   0  0  0  0  0  0  0  0  0  0  0  0
   28.4360   10.5860   23.0690 H   0  0  0  0  0  0  0  0  0  0  0  0
   22.9280    7.9610   24.5560 H   0  0  0  0  0  0  0  0  0  0  0  0
   23.0120    9.2800   25.6780 H   0  0  0  0  0  0  0  0  0  0  0  0
  1  2  1  0  0  0  0
  1 30  1  0  0  0  0
  1 31  1  0  0  0  0
  1 32  1  0  0  0  0
  2  3  1  0  0  0  0
  2  6  1  0  0  0  0
  3  4  2  0  0  0  0
  3 29  1  0  0  0  0
  4  5  1  0  0  0  0
  5  6  1  0  0  0  0
  5  8  1  0  0  0  0
  5 18  1  0  0  0  0
  6  7  2  0  0  0  0
  8  9  1  0  0  0  0
  8 17  2  0  0  0  0
  9 10  2  0  0  0  0
  9 33  1  0  0  0  0
 10 11  1  0  0  0  0
 10 34  1  0  0  0  0
 11 12  1  0  0  0  0
 11 16  2  0  0  0  0
 12 13  1  0  0  0  0
 13 14  1  0  0  0  0
 13 15  1  0  0  0  0
 13 35  1  0  0  0  0
 16 17  1  0  0  0  0
 16 36  1  0  0  0  0
 17 37  1  0  0  0  0
 18 19  1  0  0  0  0
 18 23  2  0  0  0  0
 19 20  2  0  0  0  0
 19 38  1  0  0  0  0
 20 21  1  0  0  0  0
 20 39  1  0  0  0  0
 21 22  2  0  0  0  0
 21 40  1  0  0  0  0
 22 23  1  0  0  0  0
 22 24  1  0  0  0  0
 23 41  1  0  0  0  0
 24 25  3  0  0  0  0
 25 26  1  0  0  0  0
 26 27  1  0  0  0  0
 26 42  1  0  0  0  0
 26 43  1  0  0  0  0
 27 28  1  0  0  0  0
 27 44  1  0  0  0  0
 27 45  1  0  0  0  0
 29 46  1  0  0  0  0
 29 47  1  0  0  0  0
M  END
>  <PARENT_CMPD_ID>
CHEMBL1271141

>  <STANDARD_TYPE>
IC50

>  <RELATION>
=

>  <STANDARD_VALUE>
10

>  <STANDARD_UNITS>
nM

>  <COMPOUND_KEY>
62

>  <PUBMED_ID>
20880704

>  <JOURNAL>
Bioorg. Med. Chem. Lett.

>  <YEAR>
2010

>  <VOLUME>
20

>  <FIRST_PAGE>
6597

>  <Company>
Pfizer

>  <idx>
404

>  <Model>
Valid

>  <target>
8

>  <des_pred_mlr>
6.401

>  <RF_Canvas>
7.0272188

>  <DNN_Canvas>
7.2688313

>  <pred_CoMFA>
7.2119002

>  <pred_COMSIA>
6.5388999

>  <pred_abm5>
7.2586365

>  <pred_ff8>
6.7927332

>  <pred_gau6>
7.1787033

>  <CID>
BACE_404

>  <active>
1

>  <des_class_bayes>
1

>  <maacs_class_bayes>
1

>  <radial_class_bayes>
1

>  <dend_class_bayes>
1

>  <molprint_class_bayes>
1

>  <RF_canvas>
1

>  <DNN_canvas>
1

$$$$
CHEMBL1271453
  MOE2015           3D

 48 50  0  0  1  0  0  0  0  0999 V2000
   22.5620   11.8510   25.0930 C   0  0  0  0  0  0  0  0  0  0  0  0
   22.3580   11.0910   23.8860 N   0  0  0  0  0  0  0  0  0  0  0  0
   22.4910    9.7610   23.7280 C   0  0  0  0  0  0  0  0  0  0  0  0
   22.2760    9.3050   22.5360 N   0  0  0  0  0  0  0  0  0  0  0  0
   21.9230   10.4860   21.6760 C   0  0  2  0  0  0  0  0  0  0  0  0
   21.9860   11.6370   22.6940 C   0  0  0  0  0  0  0  0  0  0  0  0
   21.7780   12.8210   22.4690 O   0  0  0  0  0  0  0  0  0  0  0  0
   20.5130   10.2500   21.1020 C   0  0  0  0  0  0  0  0  0  0  0  0
   19.5260   11.2380   21.0560 C   0  0  0  0  0  0  0  0  0  0  0  0
   18.2820   10.9860   20.4800 C   0  0  0  0  0  0  0  0  0  0  0  0
   17.9810    9.7400   19.9420 C   0  0  0  0  0  0  0  0  0  0  0  0
   16.7410    9.6230   19.3860 O   0  0  0  0  0  0  0  0  0  0  0  0
   16.2000    8.3150   19.3580 C   0  0  0  0  0  0  0  0  0  0  0  0
   16.6370    7.6840   18.2450 F   0  0  0  0  0  0  0  0  0  0  0  0
   14.8570    8.4340   19.2260 F   0  0  0  0  0  0  0  0  0  0  0  0
   18.9540    8.7500   19.9640 C   0  0  0  0  0  0  0  0  0  0  0  0
   20.2000    9.0050   20.5400 C   0  0  0  0  0  0  0  0  0  0  0  0
   22.9920   10.7320   20.5860 C   0  0  0  0  0  0  0  0  0  0  0  0
   22.6810   11.3120   19.3510 C   0  0  0  0  0  0  0  0  0  0  0  0
   23.6720   11.5750   18.4030 C   0  0  0  0  0  0  0  0  0  0  0  0
   25.0020   11.2890   18.6720 C   0  0  0  0  0  0  0  0  0  0  0  0
   25.3400   10.7350   19.8960 C   0  0  0  0  0  0  0  0  0  0  0  0
   24.3450   10.4560   20.8370 C   0  0  0  0  0  0  0  0  0  0  0  0
   26.7060   10.4840   20.2220 C   0  0  0  0  0  0  0  0  0  0  0  0
   27.8410   10.3080   20.5700 C   0  0  0  0  0  0  0  0  0  0  0  0
   29.2010   10.1240   21.0790 C   0  0  0  0  0  0  0  0  0  0  0  0
   29.1920    9.7380   22.5530 C   0  0  0  0  0  0  0  0  0  0  0  0
   30.5210    9.5650   23.0300 O   0  0  0  0  0  0  0  0  0  0  0  0
   22.8320    8.9480   24.7520 N   0  0  0  0  0  0  0  0  0  0  0  0
   22.4000   12.9180   24.9240 H   0  0  0  0  0  0  0  0  0  0  0  0
   23.5840   11.6840   25.4480 H   0  0  0  0  0  0  0  0  0  0  0  0
   21.8700   11.4900   25.8600 H   0  0  0  0  0  0  0  0  0  0  0  0
   19.7030   12.2380   21.4450 H   0  0  0  0  0  0  0  0  0  0  0  0
   17.5380   11.7790   20.4500 H   0  0  0  0  0  0  0  0  0  0  0  0
   16.4110    7.7210   20.2540 H   0  0  0  0  0  0  0  0  0  0  0  0
   18.7890    7.7750   19.5150 H   0  0  0  0  0  0  0  0  0  0  0  0
   20.9480    8.2120   20.5340 H   0  0  0  0  0  0  0  0  0  0  0  0
   21.6580   11.5800   19.0980 H   0  0  0  0  0  0  0  0  0  0  0  0
   23.3990   12.0220   17.4500 H   0  0  0  0  0  0  0  0  0  0  0  0
   25.7640   11.5140   17.9310 H   0  0  0  0  0  0  0  0  0  0  0  0
   24.6420   10.0250   21.7930 H   0  0  0  0  0  0  0  0  0  0  0  0
   29.7860   11.0420   20.9450 H   0  0  0  0  0  0  0  0  0  0  0  0
   29.7220    9.3520   20.5000 H   0  0  0  0  0  0  0  0  0  0  0  0
   28.6400    8.8070   22.7210 H   0  0  0  0  0  0  0  0  0  0  0  0
   28.7180   10.5190   23.1570 H   0  0  0  0  0  0  0  0  0  0  0  0
   30.9130    8.8130   22.5530 H   0  0  0  0  0  0  0  0  0  0  0  0
   22.9230    7.9570   24.5700 H   0  0  0  0  0  0  0  0  0  0  0  0
   22.9990    9.2770   25.6920 H   0  0  0  0  0  0  0  0  0  0  0  0
  1  2  1  0  0  0  0
  1 30  1  0  0  0  0
  1 31  1  0  0  0  0
  1 32  1  0  0  0  0
  2  3  1  0  0  0  0
  2  6  1  0  0  0  0
  3  4  2  0  0  0  0
  3 29  1  0  0  0  0
  4  5  1  0  0  0  0
  5  6  1  0  0  0  0
  5  8  1  0  0  0  0
  5 18  1  0  0  0  0
  6  7  2  0  0  0  0
  8  9  1  0  0  0  0
  8 17  2  0  0  0  0
  9 10  2  0  0  0  0
  9 33  1  0  0  0  0
 10 11  1  0  0  0  0
 10 34  1  0  0  0  0
 11 12  1  0  0  0  0
 11 16  2  0  0  0  0
 12 13  1  0  0  0  0
 13 14  1  0  0  0  0
 13 15  1  0  0  0  0
 13 35  1  0  0  0  0
 16 17  1  0  0  0  0
 16 36  1  0  0  0  0
 17 37  1  0  0  0  0
 18 19  1  0  0  0  0
 18 23  2  0  0  0  0
 19 20  2  0  0  0  0
 19 38  1  0  0  0  0
 20 21  1  0  0  0  0
 20 39  1  0  0  0  0
 21 22  2  0  0  0  0
 21 40  1  0  0  0  0
 22 23  1  0  0  0  0
 22 24  1  0  0  0  0
 23 41  1  0  0  0  0
 24 25  3  0  0  0  0
 25 26  1  0  0  0  0
 26 27  1  0  0  0  0
 26 42  1  0  0  0  0
 26 43  1  0  0  0  0
 27 28  1  0  0  0  0
 27 44  1  0  0  0  0
 27 45  1  0  0  0  0
 28 46  1  0  0  0  0
 29 47  1  0  0  0  0
 29 48  1  0  0  0  0
M  END
>  <PARENT_CMPD_ID>
CHEMBL1271453

>  <STANDARD_TYPE>
IC50

>  <RELATION>
=

>  <STANDARD_VALUE>
10

>  <STANDARD_UNITS>
nM

>  <COMPOUND_KEY>
69

>  <PUBMED_ID>
20880704

>  <JOURNAL>
Bioorg. Med. Chem. Lett.

>  <YEAR>
2010

>  <VOLUME>
20

>  <FIRST_PAGE>
6597

>  <Company>
Pfizer

>  <idx>
405

>  <Model>
Valid

>  <target>
8

>  <des_pred_mlr>
6.2754898

>  <RF_Canvas>
6.8914433

>  <DNN_Canvas>
7.1706939

>  <pred_CoMFA>
7.3787999

>  <pred_COMSIA>
6.783

>  <pred_abm5>
7.1895957

>  <pred_ff8>
6.9118977

>  <pred_gau6>
6.9282117

>  <CID>
BACE_405

>  <active>
1

>  <des_class_bayes>
1

>  <maacs_class_bayes>
1

>  <radial_class_bayes>
1

>  <dend_class_bayes>
1

>  <molprint_class_bayes>
1

>  <RF_canvas>
1

>  <DNN_canvas>
1

$$$$
CHEMBL1269921
  MOE2015           3D

 54 56  0  0  1  0  0  0  0  0999 V2000
   22.5490   11.8480   25.0970 C   0  0  0  0  0  0  0  0  0  0  0  0
   22.3400   11.0890   23.8900 N   0  0  0  0  0  0  0  0  0  0  0  0
   22.4790    9.7600   23.7270 C   0  0  0  0  0  0  0  0  0  0  0  0
   22.2560    9.3060   22.5360 N   0  0  0  0  0  0  0  0  0  0  0  0
   21.8880   10.4870   21.6820 C   0  0  2  0  0  0  0  0  0  0  0  0
   21.9630   11.6370   22.7000 C   0  0  0  0  0  0  0  0  0  0  0  0
   21.7670   12.8220   22.4740 O   0  0  0  0  0  0  0  0  0  0  0  0
   20.4770   10.2480   21.1180 C   0  0  0  0  0  0  0  0  0  0  0  0
   19.4900   11.2350   21.0730 C   0  0  0  0  0  0  0  0  0  0  0  0
   18.2510   10.9840   20.4890 C   0  0  0  0  0  0  0  0  0  0  0  0
   17.9570    9.7400   19.9430 C   0  0  0  0  0  0  0  0  0  0  0  0
   16.7190    9.6230   19.3810 O   0  0  0  0  0  0  0  0  0  0  0  0
   16.1800    8.3140   19.3530 C   0  0  0  0  0  0  0  0  0  0  0  0
   16.6220    7.6820   18.2420 F   0  0  0  0  0  0  0  0  0  0  0  0
   14.8380    8.4320   19.2170 F   0  0  0  0  0  0  0  0  0  0  0  0
   18.9300    8.7510   19.9640 C   0  0  0  0  0  0  0  0  0  0  0  0
   20.1700    9.0040   20.5470 C   0  0  0  0  0  0  0  0  0  0  0  0
   22.9390   10.7410   20.5810 C   0  0  0  0  0  0  0  0  0  0  0  0
   22.6040   11.3240   19.3520 C   0  0  0  0  0  0  0  0  0  0  0  0
   23.5720   11.5970   18.3870 C   0  0  0  0  0  0  0  0  0  0  0  0
   24.9050   11.3170   18.6330 C   0  0  0  0  0  0  0  0  0  0  0  0
   25.2650   10.7610   19.8510 C   0  0  0  0  0  0  0  0  0  0  0  0
   24.2950   10.4710   20.8100 C   0  0  0  0  0  0  0  0  0  0  0  0
   26.6370   10.5190   20.1360 C   0  0  0  0  0  0  0  0  0  0  0  0
   27.8000   10.3620   20.3780 C   0  0  0  0  0  0  0  0  0  0  0  0
   29.2240   10.2110   20.6680 C   0  0  0  0  0  0  0  0  0  0  0  0
   29.4660    9.3470   21.8940 C   0  0  0  0  0  0  0  0  0  0  0  0
   29.0920   10.0450   23.1860 C   0  0  0  0  0  0  0  0  0  0  0  0
   29.3720    9.1540   24.3850 C   0  0  0  0  0  0  0  0  0  0  0  0
   29.0440    9.8360   25.5890 O   0  0  0  0  0  0  0  0  0  0  0  0
   22.8340    8.9480   24.7460 N   0  0  0  0  0  0  0  0  0  0  0  0
   23.5770   11.6940   25.4370 H   0  0  0  0  0  0  0  0  0  0  0  0
   21.8720   11.4730   25.8710 H   0  0  0  0  0  0  0  0  0  0  0  0
   22.3690   12.9130   24.9340 H   0  0  0  0  0  0  0  0  0  0  0  0
   19.6660   12.2330   21.4680 H   0  0  0  0  0  0  0  0  0  0  0  0
   17.5050   11.7760   20.4590 H   0  0  0  0  0  0  0  0  0  0  0  0
   16.3890    7.7210   20.2510 H   0  0  0  0  0  0  0  0  0  0  0  0
   18.7690    7.7780   19.5070 H   0  0  0  0  0  0  0  0  0  0  0  0
   20.9220    8.2150   20.5390 H   0  0  0  0  0  0  0  0  0  0  0  0
   21.5750   11.5890   19.1180 H   0  0  0  0  0  0  0  0  0  0  0  0
   23.2790   12.0450   17.4400 H   0  0  0  0  0  0  0  0  0  0  0  0
   25.6540   11.5470   17.8810 H   0  0  0  0  0  0  0  0  0  0  0  0
   24.6120   10.0390   21.7580 H   0  0  0  0  0  0  0  0  0  0  0  0
   29.7120    9.7420   19.8040 H   0  0  0  0  0  0  0  0  0  0  0  0
   29.6920   11.1930   20.7950 H   0  0  0  0  0  0  0  0  0  0  0  0
   30.5320    9.0870   21.9270 H   0  0  0  0  0  0  0  0  0  0  0  0
   28.9150    8.4010   21.8050 H   0  0  0  0  0  0  0  0  0  0  0  0
   28.0330   10.3280   23.1920 H   0  0  0  0  0  0  0  0  0  0  0  0
   29.6530   10.9830   23.2890 H   0  0  0  0  0  0  0  0  0  0  0  0
   30.4280    8.8670   24.4320 H   0  0  0  0  0  0  0  0  0  0  0  0
   28.7710    8.2400   24.3420 H   0  0  0  0  0  0  0  0  0  0  0  0
   29.5800   10.6470   25.6230 H   0  0  0  0  0  0  0  0  0  0  0  0
   22.9250    7.9570   24.5630 H   0  0  0  0  0  0  0  0  0  0  0  0
   23.0150    9.2770   25.6840 H   0  0  0  0  0  0  0  0  0  0  0  0
  1  2  1  0  0  0  0
  1 32  1  0  0  0  0
  1 33  1  0  0  0  0
  1 34  1  0  0  0  0
  2  3  1  0  0  0  0
  2  6  1  0  0  0  0
  3  4  2  0  0  0  0
  3 31  1  0  0  0  0
  4  5  1  0  0  0  0
  5  6  1  0  0  0  0
  5  8  1  0  0  0  0
  5 18  1  0  0  0  0
  6  7  2  0  0  0  0
  8  9  1  0  0  0  0
  8 17  2  0  0  0  0
  9 10  2  0  0  0  0
  9 35  1  0  0  0  0
 10 11  1  0  0  0  0
 10 36  1  0  0  0  0
 11 12  1  0  0  0  0
 11 16  2  0  0  0  0
 12 13  1  0  0  0  0
 13 14  1  0  0  0  0
 13 15  1  0  0  0  0
 13 37  1  0  0  0  0
 16 17  1  0  0  0  0
 16 38  1  0  0  0  0
 17 39  1  0  0  0  0
 18 19  1  0  0  0  0
 18 23  2  0  0  0  0
 19 20  2  0  0  0  0
 19 40  1  0  0  0  0
 20 21  1  0  0  0  0
 20 41  1  0  0  0  0
 21 22  2  0  0  0  0
 21 42  1  0  0  0  0
 22 23  1  0  0  0  0
 22 24  1  0  0  0  0
 23 43  1  0  0  0  0
 24 25  3  0  0  0  0
 25 26  1  0  0  0  0
 26 27  1  0  0  0  0
 26 44  1  0  0  0  0
 26 45  1  0  0  0  0
 27 28  1  0  0  0  0
 27 46  1  0  0  0  0
 27 47  1  0  0  0  0
 28 29  1  0  0  0  0
 28 48  1  0  0  0  0
 28 49  1  0  0  0  0
 29 30  1  0  0  0  0
 29 50  1  0  0  0  0
 29 51  1  0  0  0  0
 30 52  1  0  0  0  0
 31 53  1  0  0  0  0
 31 54  1  0  0  0  0
M  END
>  <PARENT_CMPD_ID>
CHEMBL1269921

>  <STANDARD_TYPE>
IC50

>  <RELATION>
=

>  <STANDARD_VALUE>
10

>  <STANDARD_UNITS>
nM

>  <COMPOUND_KEY>
71

>  <PUBMED_ID>
20880704

>  <JOURNAL>
Bioorg. Med. Chem. Lett.

>  <YEAR>
2010

>  <VOLUME>
20

>  <FIRST_PAGE>
6597

>  <Company>
Pfizer

>  <idx>
406

>  <Model>
Valid

>  <target>
8

>  <des_pred_mlr>
6.58149

>  <RF_Canvas>
7.1057687

>  <DNN_Canvas>
7.2368259

>  <pred_CoMFA>
7.5188999

>  <pred_COMSIA>
7.0317998

>  <pred_abm5>
7.4516578

>  <pred_ff8>
4.9909587

>  <pred_gau6>
7.5848489

>  <CID>
BACE_406

>  <active>
1

>  <des_class_bayes>
1

>  <maacs_class_bayes>
1

>  <radial_class_bayes>
1

>  <dend_class_bayes>
1

>  <molprint_class_bayes>
1

>  <RF_canvas>
1

>  <DNN_canvas>
1

$$$$
CHEMBL1270029
  MOE2015           3D

 49 51  0  0  1  0  0  0  0  0999 V2000
   22.5360   11.8390   25.0970 C   0  0  0  0  0  0  0  0  0  0  0  0
   22.3390   11.0820   23.8880 N   0  0  0  0  0  0  0  0  0  0  0  0
   22.4840    9.7540   23.7240 C   0  0  0  0  0  0  0  0  0  0  0  0
   22.2710    9.3020   22.5310 N   0  0  0  0  0  0  0  0  0  0  0  0
   21.8970   10.4820   21.6830 C   0  0  2  0  0  0  0  0  0  0  0  0
   21.9650   11.6300   22.6990 C   0  0  0  0  0  0  0  0  0  0  0  0
   21.7640   12.8150   22.4720 O   0  0  0  0  0  0  0  0  0  0  0  0
   20.4840   10.2380   21.1220 C   0  0  0  0  0  0  0  0  0  0  0  0
   19.4960   11.2230   21.0720 C   0  0  0  0  0  0  0  0  0  0  0  0
   18.2650   10.9730   20.4700 C   0  0  0  0  0  0  0  0  0  0  0  0
   17.9780    9.7320   19.9140 C   0  0  0  0  0  0  0  0  0  0  0  0
   16.7550    9.6260   19.3200 O   0  0  0  0  0  0  0  0  0  0  0  0
   16.2680    8.3170   19.0890 C   0  0  0  0  0  0  0  0  0  0  0  0
   14.9460    8.4160   18.8190 F   0  0  0  0  0  0  0  0  0  0  0  0
   16.3650    7.5810   20.2180 F   0  0  0  0  0  0  0  0  0  0  0  0
   18.9480    8.7400   19.9610 C   0  0  0  0  0  0  0  0  0  0  0  0
   20.1830    8.9930   20.5560 C   0  0  0  0  0  0  0  0  0  0  0  0
   22.9350   10.7450   20.5690 C   0  0  0  0  0  0  0  0  0  0  0  0
   22.5730   11.4040   19.3880 C   0  0  0  0  0  0  0  0  0  0  0  0
   23.5100   11.6790   18.4030 C   0  0  0  0  0  0  0  0  0  0  0  0
   24.8280   11.3220   18.5970 C   0  0  0  0  0  0  0  0  0  0  0  0
   25.7170   11.6140   17.6440 F   0  0  0  0  0  0  0  0  0  0  0  0
   25.2400   10.6880   19.7560 C   0  0  0  0  0  0  0  0  0  0  0  0
   26.5730   10.3960   19.8110 O   0  0  0  0  0  0  0  0  0  0  0  0
   27.0790   10.0740   21.0940 C   0  0  0  0  0  0  0  0  0  0  0  0
   28.5910   10.1790   21.0550 C   0  0  0  0  0  0  0  0  0  0  0  0
   29.1550    9.8820   22.4240 C   0  0  0  0  0  0  0  0  0  0  0  0
   30.4790   10.1400   22.3960 F   0  0  0  0  0  0  0  0  0  0  0  0
   24.2880   10.3960   20.7340 C   0  0  0  0  0  0  0  0  0  0  0  0
   22.8320    8.9410   24.7430 N   0  0  0  0  0  0  0  0  0  0  0  0
   21.8490   11.4660   25.8630 H   0  0  0  0  0  0  0  0  0  0  0  0
   22.3610   12.9050   24.9330 H   0  0  0  0  0  0  0  0  0  0  0  0
   23.5600   11.6830   25.4500 H   0  0  0  0  0  0  0  0  0  0  0  0
   19.6650   12.2210   21.4700 H   0  0  0  0  0  0  0  0  0  0  0  0
   17.5210   11.7660   20.4300 H   0  0  0  0  0  0  0  0  0  0  0  0
   16.7730    7.8220   18.2530 H   0  0  0  0  0  0  0  0  0  0  0  0
   18.7880    7.7560   19.5310 H   0  0  0  0  0  0  0  0  0  0  0  0
   20.9300    8.2000   20.5630 H   0  0  0  0  0  0  0  0  0  0  0  0
   21.5500   11.7280   19.2120 H   0  0  0  0  0  0  0  0  0  0  0  0
   23.2180   12.1850   17.4890 H   0  0  0  0  0  0  0  0  0  0  0  0
   26.7010   10.7750   21.8490 H   0  0  0  0  0  0  0  0  0  0  0  0
   26.7820    9.0520   21.3610 H   0  0  0  0  0  0  0  0  0  0  0  0
   28.8950   11.1810   20.7300 H   0  0  0  0  0  0  0  0  0  0  0  0
   29.0100    9.4920   20.3100 H   0  0  0  0  0  0  0  0  0  0  0  0
   29.0130    8.8340   22.7030 H   0  0  0  0  0  0  0  0  0  0  0  0
   28.7090   10.5170   23.1960 H   0  0  0  0  0  0  0  0  0  0  0  0
   24.5820    9.8770   21.6430 H   0  0  0  0  0  0  0  0  0  0  0  0
   22.9420    7.9520   24.5620 H   0  0  0  0  0  0  0  0  0  0  0  0
   22.9880    9.2700   25.6840 H   0  0  0  0  0  0  0  0  0  0  0  0
  1  2  1  0  0  0  0
  1 31  1  0  0  0  0
  1 32  1  0  0  0  0
  1 33  1  0  0  0  0
  2  3  1  0  0  0  0
  2  6  1  0  0  0  0
  3  4  2  0  0  0  0
  3 30  1  0  0  0  0
  4  5  1  0  0  0  0
  5  6  1  0  0  0  0
  5  8  1  0  0  0  0
  5 18  1  0  0  0  0
  6  7  2  0  0  0  0
  8  9  1  0  0  0  0
  8 17  2  0  0  0  0
  9 10  2  0  0  0  0
  9 34  1  0  0  0  0
 10 11  1  0  0  0  0
 10 35  1  0  0  0  0
 11 12  1  0  0  0  0
 11 16  2  0  0  0  0
 12 13  1  0  0  0  0
 13 14  1  0  0  0  0
 13 15  1  0  0  0  0
 13 36  1  0  0  0  0
 16 17  1  0  0  0  0
 16 37  1  0  0  0  0
 17 38  1  0  0  0  0
 18 19  2  0  0  0  0
 18 29  1  0  0  0  0
 19 20  1  0  0  0  0
 19 39  1  0  0  0  0
 20 21  2  0  0  0  0
 20 40  1  0  0  0  0
 21 22  1  0  0  0  0
 21 23  1  0  0  0  0
 23 24  1  0  0  0  0
 23 29  2  0  0  0  0
 24 25  1  0  0  0  0
 25 26  1  0  0  0  0
 25 41  1  0  0  0  0
 25 42  1  0  0  0  0
 26 27  1  0  0  0  0
 26 43  1  0  0  0  0
 26 44  1  0  0  0  0
 27 28  1  0  0  0  0
 27 45  1  0  0  0  0
 27 46  1  0  0  0  0
 29 47  1  0  0  0  0
 30 48  1  0  0  0  0
 30 49  1  0  0  0  0
M  END
>  <PARENT_CMPD_ID>
CHEMBL1270029

>  <STANDARD_TYPE>
IC50

>  <RELATION>
=

>  <STANDARD_VALUE>
10

>  <STANDARD_UNITS>
nM

>  <COMPOUND_KEY>
73

>  <PUBMED_ID>
20880704

>  <JOURNAL>
Bioorg. Med. Chem. Lett.

>  <YEAR>
2010

>  <VOLUME>
20

>  <FIRST_PAGE>
6597

>  <Company>
Pfizer

>  <idx>
407

>  <Model>
Valid

>  <target>
8

>  <des_pred_mlr>
6.3582501

>  <RF_Canvas>
7.5057673

>  <DNN_Canvas>
6.9331398

>  <pred_CoMFA>
7.1834002

>  <pred_COMSIA>
6.7567

>  <pred_abm5>
7.1926208

>  <pred_ff8>
5.862236

>  <pred_gau6>
7.2554541

>  <CID>
BACE_407

>  <active>
1

>  <des_class_bayes>
1

>  <maacs_class_bayes>
1

>  <radial_class_bayes>
1

>  <dend_class_bayes>
1

>  <molprint_class_bayes>
1

>  <RF_canvas>
1

>  <DNN_canvas>
1

$$$$
CHEMBL1270435
  MOE2015           3D

 49 51  0  0  1  0  0  0  0  0999 V2000
   22.5570   11.8420   25.0810 C   0  0  0  0  0  0  0  0  0  0  0  0
   22.3640   11.0880   23.8680 N   0  0  0  0  0  0  0  0  0  0  0  0
   22.5200    9.7620   23.6980 C   0  0  0  0  0  0  0  0  0  0  0  0
   22.3140    9.3130   22.5030 N   0  0  0  0  0  0  0  0  0  0  0  0
   21.9240   10.4910   21.6560 C   0  0  2  0  0  0  0  0  0  0  0  0
   21.9830   11.6380   22.6810 C   0  0  0  0  0  0  0  0  0  0  0  0
   21.7690   12.8220   22.4630 O   0  0  0  0  0  0  0  0  0  0  0  0
   20.4980   10.2410   21.1210 C   0  0  0  0  0  0  0  0  0  0  0  0
   19.5210   11.2370   21.0520 C   0  0  0  0  0  0  0  0  0  0  0  0
   18.2790   10.9840   20.4740 C   0  0  0  0  0  0  0  0  0  0  0  0
   17.9720    9.7320   19.9540 C   0  0  0  0  0  0  0  0  0  0  0  0
   16.7350    9.6190   19.3900 O   0  0  0  0  0  0  0  0  0  0  0  0
   16.1910    8.3130   19.3580 C   0  0  0  0  0  0  0  0  0  0  0  0
   16.6350    7.6800   18.2480 F   0  0  0  0  0  0  0  0  0  0  0  0
   14.8490    8.4370   19.2140 F   0  0  0  0  0  0  0  0  0  0  0  0
   18.9350    8.7340   20.0010 C   0  0  0  0  0  0  0  0  0  0  0  0
   20.1780    8.9860   20.5830 C   0  0  0  0  0  0  0  0  0  0  0  0
   22.9550   10.7620   20.5330 C   0  0  0  0  0  0  0  0  0  0  0  0
   22.5580   11.0950   19.2300 C   0  0  0  0  0  0  0  0  0  0  0  0
   23.4800   11.4260   18.2380 C   0  0  0  0  0  0  0  0  0  0  0  0
   24.8280   11.4750   18.5280 C   0  0  0  0  0  0  0  0  0  0  0  0
   25.2430   11.1820   19.8120 C   0  0  0  0  0  0  0  0  0  0  0  0
   26.5310   11.4950   20.1310 O   0  0  0  0  0  0  0  0  0  0  0  0
   27.3890   10.3580   20.1450 C   0  0  0  0  0  0  0  0  0  0  0  0
   27.7070   10.0470   21.5910 C   0  0  0  0  0  0  0  0  0  0  0  0
   29.1180    9.5760   21.7720 C   0  0  0  0  0  0  0  0  0  0  0  0
   29.3200    9.2930   23.0780 F   0  0  0  0  0  0  0  0  0  0  0  0
   29.9570   10.5860   21.4630 F   0  0  0  0  0  0  0  0  0  0  0  0
   24.3320   10.8000   20.8020 C   0  0  0  0  0  0  0  0  0  0  0  0
   22.8660    8.9480   24.7200 N   0  0  0  0  0  0  0  0  0  0  0  0
   21.8700   11.4640   25.8440 H   0  0  0  0  0  0  0  0  0  0  0  0
   22.3790   12.9080   24.9200 H   0  0  0  0  0  0  0  0  0  0  0  0
   23.5810   11.6880   25.4350 H   0  0  0  0  0  0  0  0  0  0  0  0
   19.7080   12.2440   21.4160 H   0  0  0  0  0  0  0  0  0  0  0  0
   17.5440   11.7840   20.4230 H   0  0  0  0  0  0  0  0  0  0  0  0
   16.3920    7.7180   20.2560 H   0  0  0  0  0  0  0  0  0  0  0  0
   18.7650    7.7530   19.5660 H   0  0  0  0  0  0  0  0  0  0  0  0
   20.9220    8.1900   20.5910 H   0  0  0  0  0  0  0  0  0  0  0  0
   21.5090   11.1160   18.9460 H   0  0  0  0  0  0  0  0  0  0  0  0
   23.1300   11.6790   17.2410 H   0  0  0  0  0  0  0  0  0  0  0  0
   25.5410   11.7990   17.7750 H   0  0  0  0  0  0  0  0  0  0  0  0
   26.9620    9.4850   19.6330 H   0  0  0  0  0  0  0  0  0  0  0  0
   28.2900   10.6450   19.5930 H   0  0  0  0  0  0  0  0  0  0  0  0
   27.0100    9.2940   21.9740 H   0  0  0  0  0  0  0  0  0  0  0  0
   27.5550   10.9350   22.2180 H   0  0  0  0  0  0  0  0  0  0  0  0
   29.3660    8.6970   21.1710 H   0  0  0  0  0  0  0  0  0  0  0  0
   24.6990   10.6190   21.8090 H   0  0  0  0  0  0  0  0  0  0  0  0
   22.9680    7.9580   24.5350 H   0  0  0  0  0  0  0  0  0  0  0  0
   23.0300    9.2750   25.6620 H   0  0  0  0  0  0  0  0  0  0  0  0
  1  2  1  0  0  0  0
  1 31  1  0  0  0  0
  1 32  1  0  0  0  0
  1 33  1  0  0  0  0
  2  3  1  0  0  0  0
  2  6  1  0  0  0  0
  3  4  2  0  0  0  0
  3 30  1  0  0  0  0
  4  5  1  0  0  0  0
  5  6  1  0  0  0  0
  5  8  1  0  0  0  0
  5 18  1  0  0  0  0
  6  7  2  0  0  0  0
  8  9  1  0  0  0  0
  8 17  2  0  0  0  0
  9 10  2  0  0  0  0
  9 34  1  0  0  0  0
 10 11  1  0  0  0  0
 10 35  1  0  0  0  0
 11 12  1  0  0  0  0
 11 16  2  0  0  0  0
 12 13  1  0  0  0  0
 13 14  1  0  0  0  0
 13 15  1  0  0  0  0
 13 36  1  0  0  0  0
 16 17  1  0  0  0  0
 16 37  1  0  0  0  0
 17 38  1  0  0  0  0
 18 19  1  0  0  0  0
 18 29  2  0  0  0  0
 19 20  2  0  0  0  0
 19 39  1  0  0  0  0
 20 21  1  0  0  0  0
 20 40  1  0  0  0  0
 21 22  2  0  0  0  0
 21 41  1  0  0  0  0
 22 23  1  0  0  0  0
 22 29  1  0  0  0  0
 23 24  1  0  0  0  0
 24 25  1  0  0  0  0
 24 42  1  0  0  0  0
 24 43  1  0  0  0  0
 25 26  1  0  0  0  0
 25 44  1  0  0  0  0
 25 45  1  0  0  0  0
 26 27  1  0  0  0  0
 26 28  1  0  0  0  0
 26 46  1  0  0  0  0
 29 47  1  0  0  0  0
 30 48  1  0  0  0  0
 30 49  1  0  0  0  0
M  END
>  <PARENT_CMPD_ID>
CHEMBL1270435

>  <STANDARD_TYPE>
IC50

>  <RELATION>
=

>  <STANDARD_VALUE>
10

>  <STANDARD_UNITS>
nM

>  <COMPOUND_KEY>
80

>  <PUBMED_ID>
20880704

>  <JOURNAL>
Bioorg. Med. Chem. Lett.

>  <YEAR>
2010

>  <VOLUME>
20

>  <FIRST_PAGE>
6597

>  <Company>
Pfizer

>  <idx>
408

>  <Model>
Valid

>  <target>
8

>  <des_pred_mlr>
6.94418

>  <RF_Canvas>
7.0178018

>  <DNN_Canvas>
6.7640905

>  <pred_CoMFA>
7.0418

>  <pred_COMSIA>
6.6957998

>  <pred_abm5>
7.3675613

>  <pred_ff8>
6.6817775

>  <pred_gau6>
7.1504946

>  <CID>
BACE_408

>  <active>
1

>  <des_class_bayes>
1

>  <maacs_class_bayes>
1

>  <radial_class_bayes>
1

>  <dend_class_bayes>
1

>  <molprint_class_bayes>
1

>  <RF_canvas>
1

>  <DNN_canvas>
1

$$$$
21078556_10n
  MOE2015           3D

 83 87  0  0  1  0  0  0  0  0999 V2000
   24.4080   16.2930   24.9180 C   0  0  0  0  0  0  0  0  0  0  0  0
   22.9440   13.7660   18.4460 F   0  0  0  0  0  0  0  0  0  0  0  0
   26.9590   14.4290   23.3210 N   0  0  0  0  0  0  0  0  0  0  0  0
   25.9110   13.5900   23.0290 C   0  0  0  0  0  0  0  0  0  0  0  0
   26.6350   10.9240   18.9150 F   0  0  0  0  0  0  0  0  0  0  0  0
   24.7540   14.0650   23.6050 C   0  0  0  0  0  0  0  0  0  0  0  0
   25.1020   15.3030   24.2100 C   0  0  0  0  0  0  0  0  0  0  0  0
   27.1970   16.5550   24.4440 N   0  0  0  0  0  0  0  0  0  0  0  0
   26.4690   15.4980   24.0290 C   0  0  0  0  0  0  0  0  0  0  0  0
   26.4750   17.4730   25.1140 C   0  0  0  0  0  0  0  0  0  0  0  0
   25.1200   17.3950   25.3750 C   0  0  0  0  0  0  0  0  0  0  0  0
   24.6200   18.1860   25.9230 H   0  0  0  0  0  0  0  0  0  0  0  0
   28.2960   14.1880   23.0110 C   0  0  0  0  0  0  0  0  0  0  0  0
   28.5090   13.7930   21.7100 N   0  0  0  0  0  0  0  0  0  0  0  0
   27.7160   14.1530   20.5490 C   0  0  0  0  0  0  0  0  0  0  0  0
   28.5350   13.7000   19.3580 C   0  0  0  0  0  0  0  0  0  0  0  0
   28.5000   14.4150   18.5310 H   0  0  0  0  0  0  0  0  0  0  0  0
   28.1650   12.7440   18.9780 H   0  0  0  0  0  0  0  0  0  0  0  0
   26.7390   13.6700   20.5590 H   0  0  0  0  0  0  0  0  0  0  0  0
   27.5680   15.2380   20.5550 H   0  0  0  0  0  0  0  0  0  0  0  0
   29.6990   13.0450   21.3370 C   0  0  1  0  0  0  0  0  0  0  0  0
   29.4730   11.5280   21.4050 C   0  0  0  0  0  0  0  0  0  0  0  0
   29.3890   11.1350   22.7730 O   0  0  0  0  0  0  0  0  0  0  0  0
   29.1250   14.2930   23.8980 O   0  0  0  0  0  0  0  0  0  0  0  0
   23.4630   13.3890   23.5450 C   0  0  0  0  0  0  0  0  0  0  0  0
   23.5580   12.0240   23.3520 N   0  0  0  0  0  0  0  0  0  0  0  0
   22.4270   11.1790   22.9950 C   0  0  2  0  0  0  0  0  0  0  0  0
   21.9160   10.3840   24.2140 C   0  0  1  0  0  0  0  0  0  0  0  0
   21.3450   11.3310   25.2700 C   0  0  0  0  0  0  0  0  0  0  0  0
   20.6940   10.5350   26.3620 N   0  3  0  0  0  0  0  0  0  0  0  0
   19.6020   11.2470   27.0980 C   0  0  0  0  0  0  0  0  0  0  0  0
   18.4800   11.7010   26.2140 C   0  0  0  0  0  0  0  0  0  0  0  0
   22.3870   13.9650   23.6630 O   0  0  0  0  0  0  0  0  0  0  0  0
   22.8100   10.2510   21.8220 C   0  0  0  0  0  0  0  0  0  0  0  0
   23.4860   10.9760   20.6880 C   0  0  0  0  0  0  0  0  0  0  0  0
   24.7660   10.6010   20.2860 C   0  0  0  0  0  0  0  0  0  0  0  0
   25.4060   11.2940   19.2740 C   0  0  0  0  0  0  0  0  0  0  0  0
   24.8070   12.3630   18.6430 C   0  0  0  0  0  0  0  0  0  0  0  0
   23.5390   12.7300   19.0360 C   0  0  0  0  0  0  0  0  0  0  0  0
   22.8700   12.0450   20.0390 C   0  0  0  0  0  0  0  0  0  0  0  0
   20.9030    9.4530   23.8160 O   0  0  0  0  0  0  0  0  0  0  0  0
   17.6970   10.7620   25.5460 C   0  0  0  0  0  0  0  0  0  0  0  0
   16.7210   11.1610   24.6380 C   0  0  0  0  0  0  0  0  0  0  0  0
   16.4880   12.5130   24.4290 C   0  0  0  0  0  0  0  0  0  0  0  0
   17.2440   13.4590   25.1100 C   0  0  0  0  0  0  0  0  0  0  0  0
   18.2380   13.0560   25.9940 C   0  0  0  0  0  0  0  0  0  0  0  0
   16.0310   10.1390   24.0600 O   0  0  0  0  0  0  0  0  0  0  0  0
   15.5470   10.3910   22.7480 C   0  0  0  0  0  0  0  0  0  0  0  0
   23.3410   16.2100   25.1000 H   0  0  0  0  0  0  0  0  0  0  0  0
   26.1030   12.6810   22.4740 H   0  0  0  0  0  0  0  0  0  0  0  0
   27.0480   18.3310   25.4590 H   0  0  0  0  0  0  0  0  0  0  0  0
   30.5310   13.3170   21.9970 H   0  0  0  0  0  0  0  0  0  0  0  0
   29.9400   13.5180   19.9160 C   0  0  0  0  0  0  0  0  0  0  0  0
   30.5470   12.8320   19.3180 H   0  0  0  0  0  0  0  0  0  0  0  0
   30.4490   14.4900   19.9290 H   0  0  0  0  0  0  0  0  0  0  0  0
   30.3200   11.0150   20.9320 H   0  0  0  0  0  0  0  0  0  0  0  0
   28.5500   11.2310   20.8950 H   0  0  0  0  0  0  0  0  0  0  0  0
   29.4360    9.7230   22.9090 C   0  0  0  0  0  0  0  0  0  0  0  0
   29.3330    9.4750   23.9680 H   0  0  0  0  0  0  0  0  0  0  0  0
   30.3950    9.3340   22.5530 H   0  0  0  0  0  0  0  0  0  0  0  0
   28.6130    9.2560   22.3590 H   0  0  0  0  0  0  0  0  0  0  0  0
   24.4680   11.5860   23.4370 H   0  0  0  0  0  0  0  0  0  0  0  0
   21.6120   11.8270   22.6440 H   0  0  0  0  0  0  0  0  0  0  0  0
   22.7320    9.7980   24.6530 H   0  0  0  0  0  0  0  0  0  0  0  0
   20.5860   11.9690   24.8120 H   0  0  0  0  0  0  0  0  0  0  0  0
   22.1090   11.9540   25.7450 H   0  0  0  0  0  0  0  0  0  0  0  0
   21.4050   10.1930   27.0210 H   0  0  0  0  0  0  0  0  0  0  0  0
   20.3020    9.6930   25.9070 H   0  0  0  0  0  0  0  0  0  0  0  0
   20.0750   12.0860   27.6210 H   0  0  0  0  0  0  0  0  0  0  0  0
   19.2300   10.5470   27.8550 H   0  0  0  0  0  0  0  0  0  0  0  0
   21.9210    9.7450   21.4270 H   0  0  0  0  0  0  0  0  0  0  0  0
   23.4740    9.4600   22.1960 H   0  0  0  0  0  0  0  0  0  0  0  0
   25.2840    9.7690   20.7550 H   0  0  0  0  0  0  0  0  0  0  0  0
   25.3200   12.9010   17.8540 H   0  0  0  0  0  0  0  0  0  0  0  0
   21.8700   12.3720   20.3110 H   0  0  0  0  0  0  0  0  0  0  0  0
   20.2580    9.8980   23.2320 H   0  0  0  0  0  0  0  0  0  0  0  0
   17.8430    9.6960   25.7100 H   0  0  0  0  0  0  0  0  0  0  0  0
   15.7080   12.8560   23.7550 H   0  0  0  0  0  0  0  0  0  0  0  0
   17.0600   14.5180   24.9470 H   0  0  0  0  0  0  0  0  0  0  0  0
   18.8270   13.8190   26.4990 H   0  0  0  0  0  0  0  0  0  0  0  0
   15.2530    9.4330   22.3090 H   0  0  0  0  0  0  0  0  0  0  0  0
   16.3200   10.8300   22.1080 H   0  0  0  0  0  0  0  0  0  0  0  0
   14.6590   11.0300   22.7800 H   0  0  0  0  0  0  0  0  0  0  0  0
  1  7  1  0  0  0  0
  1 11  2  0  0  0  0
  1 49  1  0  0  0  0
  2 39  1  0  0  0  0
  3  4  1  0  0  0  0
  3  9  1  0  0  0  0
  3 13  1  0  0  0  0
  4  6  2  0  0  0  0
  4 50  1  0  0  0  0
  5 37  1  0  0  0  0
  6  7  1  0  0  0  0
  6 25  1  0  0  0  0
  7  9  2  0  0  0  0
  8  9  1  0  0  0  0
  8 10  2  0  0  0  0
 10 11  1  0  0  0  0
 10 51  1  0  0  0  0
 11 12  1  0  0  0  0
 13 14  1  0  0  0  0
 13 24  2  0  0  0  0
 14 15  1  0  0  0  0
 14 21  1  0  0  0  0
 15 16  1  0  0  0  0
 15 19  1  0  0  0  0
 15 20  1  0  0  0  0
 16 17  1  0  0  0  0
 16 18  1  0  0  0  0
 16 53  1  0  0  0  0
 21 22  1  0  0  0  0
 21 52  1  0  0  0  0
 21 53  1  0  0  0  0
 22 23  1  0  0  0  0
 22 56  1  0  0  0  0
 22 57  1  0  0  0  0
 23 58  1  0  0  0  0
 25 26  1  0  0  0  0
 25 33  2  0  0  0  0
 26 27  1  0  0  0  0
 26 62  1  0  0  0  0
 27 28  1  0  0  0  0
 27 34  1  0  0  0  0
 27 63  1  0  0  0  0
 28 29  1  0  0  0  0
 28 41  1  0  0  0  0
 28 64  1  0  0  0  0
 29 30  1  0  0  0  0
 29 65  1  0  0  0  0
 29 66  1  0  0  0  0
 30 31  1  0  0  0  0
 30 67  1  0  0  0  0
 30 68  1  0  0  0  0
 31 32  1  0  0  0  0
 31 69  1  0  0  0  0
 31 70  1  0  0  0  0
 32 42  2  0  0  0  0
 32 46  1  0  0  0  0
 34 35  1  0  0  0  0
 34 71  1  0  0  0  0
 34 72  1  0  0  0  0
 35 36  2  0  0  0  0
 35 40  1  0  0  0  0
 36 37  1  0  0  0  0
 36 73  1  0  0  0  0
 37 38  2  0  0  0  0
 38 39  1  0  0  0  0
 38 74  1  0  0  0  0
 39 40  2  0  0  0  0
 40 75  1  0  0  0  0
 41 76  1  0  0  0  0
 42 43  1  0  0  0  0
 42 77  1  0  0  0  0
 43 44  2  0  0  0  0
 43 47  1  0  0  0  0
 44 45  1  0  0  0  0
 44 78  1  0  0  0  0
 45 46  2  0  0  0  0
 45 79  1  0  0  0  0
 46 80  1  0  0  0  0
 47 48  1  0  0  0  0
 48 81  1  0  0  0  0
 48 82  1  0  0  0  0
 48 83  1  0  0  0  0
 53 54  1  0  0  0  0
 53 55  1  0  0  0  0
 58 59  1  0  0  0  0
 58 60  1  0  0  0  0
 58 61  1  0  0  0  0
M  CHG  1  30   1
M  END
>  <PARENT_CMPD_ID>
21078556_10n

>  <STANDARD_TYPE>
IC50

>  <RELATION>
=

>  <STANDARD_VALUE>
10

>  <STANDARD_UNITS>
nM

>  <COMPOUND_KEY>
10n

>  <PUBMED_ID>
21078556

>  <JOURNAL>
Bioorg.Med.Chem.Lett.

>  <YEAR>
2011

>  <VOLUME>
21

>  <FIRST_PAGE>
537

>  <Company>
BMS

>  <idx>
409

>  <Model>
Valid

>  <target>
8

>  <des_pred_mlr>
7.56388

>  <RF_Canvas>
7.4119601

>  <DNN_Canvas>
7.619761

>  <pred_CoMFA>
7.8085999

>  <pred_COMSIA>
8.2547998

>  <pred_abm5>
7.826755

>  <pred_ff8>
6.8219428

>  <pred_gau6>
7.8916821

>  <CID>
BACE_409

>  <active>
1

>  <des_class_bayes>
1

>  <maacs_class_bayes>
1

>  <radial_class_bayes>
1

>  <dend_class_bayes>
1

>  <molprint_class_bayes>
1

>  <RF_canvas>
1

>  <DNN_canvas>
1

$$$$
21707077_56
  MOE2015           3D

 62 65  0  0  1  0  0  0  0  0999 V2000
   20.6840   12.9840   18.6770 C   0  0  0  0  0  0  0  0  0  0  0  0
   21.5510   13.9710   18.1770 C   0  0  0  0  0  0  0  0  0  0  0  0
   21.1300   14.7940   17.1310 C   0  0  0  0  0  0  0  0  0  0  0  0
   21.7910   15.5560   16.7450 H   0  0  0  0  0  0  0  0  0  0  0  0
   21.0450   12.1310   19.7240 C   0  0  0  0  0  0  0  0  0  0  0  0
   21.2420   10.7720   19.4700 C   0  0  0  0  0  0  0  0  0  0  0  0
   21.1250   10.3900   18.4660 H   0  0  0  0  0  0  0  0  0  0  0  0
   21.1810   12.6190   21.0270 C   0  0  0  0  0  0  0  0  0  0  0  0
   21.0110   13.6660   21.2330 H   0  0  0  0  0  0  0  0  0  0  0  0
   22.0390   11.3280   24.3910 C   0  0  0  0  0  0  0  0  0  0  0  0
   22.9680   14.1880   18.7410 C   0  0  0  0  0  0  0  0  0  0  0  0
   23.1510   13.4760   19.5460 H   0  0  0  0  0  0  0  0  0  0  0  0
   23.0540   15.2040   19.1270 H   0  0  0  0  0  0  0  0  0  0  0  0
   23.7010   14.0370   17.9490 H   0  0  0  0  0  0  0  0  0  0  0  0
   21.0080   11.4300   26.6850 C   0  0  3  0  0  0  0  0  0  0  0  0
   21.0070   10.3410   26.6490 H   0  0  0  0  0  0  0  0  0  0  0  0
   19.6570   11.9440   26.1690 C   0  0  0  0  0  0  0  0  0  0  0  0
   17.0580   11.1470   23.9620 C   0  0  0  0  0  0  0  0  0  0  0  0
   16.0110   11.4300   23.8540 H   0  0  0  0  0  0  0  0  0  0  0  0
   16.7470    9.5670   22.0290 C   0  0  0  0  0  0  0  0  0  0  0  0
   15.6760    9.7680   21.9920 H   0  0  0  0  0  0  0  0  0  0  0  0
   16.9380    8.5500   21.6870 H   0  0  0  0  0  0  0  0  0  0  0  0
   17.4250   11.9910   21.6230 C   0  0  0  0  0  0  0  0  0  0  0  0
   16.3990   12.3560   21.5740 H   0  0  0  0  0  0  0  0  0  0  0  0
   18.0640   12.6190   21.0020 H   0  0  0  0  0  0  0  0  0  0  0  0
   17.2290    9.7010   23.4910 C   0  0  0  0  0  0  0  0  0  0  0  0
   16.6410    9.0410   24.1280 H   0  0  0  0  0  0  0  0  0  0  0  0
   18.2810    9.4220   23.5520 H   0  0  0  0  0  0  0  0  0  0  0  0
   17.4700   10.5510   21.0900 O   0  0  0  0  0  0  0  0  0  0  0  0
   17.9140   12.0650   23.0810 C   0  0  0  0  0  0  0  0  0  0  0  0
   18.9550   11.7460   23.1300 H   0  0  0  0  0  0  0  0  0  0  0  0
   17.8310   13.0910   23.4390 H   0  0  0  0  0  0  0  0  0  0  0  0
   17.3750   11.3150   25.4590 C   0  0  0  0  0  0  0  0  0  0  0  0
   16.7010   10.6640   26.0150 H   0  0  0  0  0  0  0  0  0  0  0  0
   17.1780   12.3540   25.7240 H   0  0  0  0  0  0  0  0  0  0  0  0
   18.7600   10.9970   25.8830 N   0  0  0  0  0  0  0  0  0  0  0  0
   19.0350   10.0280   25.9580 H   0  0  0  0  0  0  0  0  0  0  0  0
   19.4450   13.1560   26.0680 O   0  0  0  0  0  0  0  0  0  0  0  0
   21.1960   11.9200   28.1360 C   0  0  0  0  0  0  0  0  0  0  0  0
   21.2160   13.0100   28.1450 H   0  0  0  0  0  0  0  0  0  0  0  0
   22.1400   11.5360   28.5230 H   0  0  0  0  0  0  0  0  0  0  0  0
   20.3740   11.5640   28.7580 H   0  0  0  0  0  0  0  0  0  0  0  0
   22.1780   11.9070   25.8040 C   0  0  0  0  0  0  0  0  0  0  0  0
   22.1690   12.9960   25.7510 H   0  0  0  0  0  0  0  0  0  0  0  0
   23.1190   11.5720   26.2410 H   0  0  0  0  0  0  0  0  0  0  0  0
   22.2250    9.9790   24.0560 C   0  0  0  0  0  0  0  0  0  0  0  0
   22.0720    9.5580   22.7890 N   0  0  0  0  0  0  0  0  0  0  0  0
   22.5620    9.0810   24.9770 N   0  0  0  0  0  0  0  0  0  0  0  0
   22.6950    8.1150   24.7150 H   0  0  0  0  0  0  0  0  0  0  0  0
   22.6850    9.3650   25.9380 H   0  0  0  0  0  0  0  0  0  0  0  0
   21.6890   12.2170   23.3710 C   0  0  0  0  0  0  0  0  0  0  0  0
   21.5360   13.2630   23.5940 H   0  0  0  0  0  0  0  0  0  0  0  0
   21.5370   11.7510   22.0630 C   0  0  0  0  0  0  0  0  0  0  0  0
   21.7360   10.3970   21.7980 C   0  0  0  0  0  0  0  0  0  0  0  0
   21.5880    9.9070   20.5040 C   0  0  0  0  0  0  0  0  0  0  0  0
   21.7410    8.8570   20.3020 H   0  0  0  0  0  0  0  0  0  0  0  0
   19.4110   12.8350   18.1190 C   0  0  0  0  0  0  0  0  0  0  0  0
   18.7440   12.0760   18.4990 H   0  0  0  0  0  0  0  0  0  0  0  0
   18.9990   13.6590   17.0770 C   0  0  0  0  0  0  0  0  0  0  0  0
   18.0130   13.5420   16.6520 H   0  0  0  0  0  0  0  0  0  0  0  0
   19.8580   14.6340   16.5830 C   0  0  0  0  0  0  0  0  0  0  0  0
   19.5390   15.2700   15.7710 H   0  0  0  0  0  0  0  0  0  0  0  0
  1  2  2  0  0  0  0
  1  5  1  0  0  0  0
  1 57  1  0  0  0  0
  2  3  1  0  0  0  0
  2 11  1  0  0  0  0
  3  4  1  0  0  0  0
  3 61  2  0  0  0  0
  5  6  1  0  0  0  0
  5  8  2  0  0  0  0
  6  7  1  0  0  0  0
  6 55  2  0  0  0  0
  8  9  1  0  0  0  0
  8 53  1  0  0  0  0
 10 43  1  0  0  0  0
 10 46  2  0  0  0  0
 10 51  1  0  0  0  0
 11 12  1  0  0  0  0
 11 13  1  0  0  0  0
 11 14  1  0  0  0  0
 15 16  1  0  0  0  0
 15 17  1  0  0  0  0
 15 39  1  0  0  0  0
 15 43  1  0  0  0  0
 17 36  1  0  0  0  0
 17 38  2  0  0  0  0
 18 19  1  0  0  0  0
 18 26  1  0  0  0  0
 18 30  1  0  0  0  0
 18 33  1  0  0  0  0
 20 21  1  0  0  0  0
 20 22  1  0  0  0  0
 20 26  1  0  0  0  0
 20 29  1  0  0  0  0
 23 24  1  0  0  0  0
 23 25  1  0  0  0  0
 23 29  1  0  0  0  0
 23 30  1  0  0  0  0
 26 27  1  0  0  0  0
 26 28  1  0  0  0  0
 30 31  1  0  0  0  0
 30 32  1  0  0  0  0
 33 34  1  0  0  0  0
 33 35  1  0  0  0  0
 33 36  1  0  0  0  0
 36 37  1  0  0  0  0
 39 40  1  0  0  0  0
 39 41  1  0  0  0  0
 39 42  1  0  0  0  0
 43 44  1  0  0  0  0
 43 45  1  0  0  0  0
 46 47  1  0  0  0  0
 46 48  1  0  0  0  0
 47 54  2  0  0  0  0
 48 49  1  0  0  0  0
 48 50  1  0  0  0  0
 51 52  1  0  0  0  0
 51 53  2  0  0  0  0
 53 54  1  0  0  0  0
 54 55  1  0  0  0  0
 55 56  1  0  0  0  0
 57 58  1  0  0  0  0
 57 59  2  0  0  0  0
 59 60  1  0  0  0  0
 59 61  1  0  0  0  0
 61 62  1  0  0  0  0
M  END
>  <PARENT_CMPD_ID>
21707077_56

>  <STANDARD_TYPE>
IC50

>  <RELATION>
=

>  <STANDARD_VALUE>
0.0099999998

>  <STANDARD_UNITS>
uM

>  <COMPOUND_KEY>
56

>  <PUBMED_ID>
21707077

>  <JOURNAL>
J.Med.Chem.

>  <YEAR>
2011

>  <VOLUME>
54

>  <FIRST_PAGE>
5836

>  <Company>
Amgen

>  <idx>
410

>  <Model>
Valid

>  <target>
8

>  <des_pred_mlr>
6.97997

>  <RF_Canvas>
6.921967

>  <DNN_Canvas>
7.0972791

>  <pred_CoMFA>
7.7096

>  <pred_COMSIA>
7.5496001

>  <pred_abm5>
8.0277576

>  <pred_ff8>
6.2546139

>  <pred_gau6>
7.8095326

>  <CID>
BACE_410

>  <active>
1

>  <des_class_bayes>
1

>  <maacs_class_bayes>
0

>  <radial_class_bayes>
1

>  <dend_class_bayes>
1

>  <molprint_class_bayes>
1

>  <RF_canvas>
0

>  <DNN_canvas>
0

$$$$
CHEMBL1916168
  MOE2015           3D

102106  0  0  1  0  0  0  0  0999 V2000
   25.1250   20.4600   25.3770 C   0  0  0  0  0  0  0  0  0  0  0  0
   25.0110   21.5340   25.3990 H   0  0  0  0  0  0  0  0  0  0  0  0
   24.5530   19.6790   26.3820 C   0  0  0  0  0  0  0  0  0  0  0  0
   23.9970   20.1390   27.1860 H   0  0  0  0  0  0  0  0  0  0  0  0
   25.8500   19.8520   24.3350 C   0  0  0  0  0  0  0  0  0  0  0  0
   23.1870   11.8460   20.3250 C   0  0  0  0  0  0  0  0  0  0  0  0
   26.2880   20.4650   23.5610 H   0  0  0  0  0  0  0  0  0  0  0  0
   22.2260   12.1450   20.7180 H   0  0  0  0  0  0  0  0  0  0  0  0
   25.1040   10.4330   20.3920 C   0  0  0  0  0  0  0  0  0  0  0  0
   24.7120   18.2920   26.3300 C   0  0  0  0  0  0  0  0  0  0  0  0
   25.6580    9.6180   20.8340 H   0  0  0  0  0  0  0  0  0  0  0  0
   24.9360   12.1640   18.6930 C   0  0  0  0  0  0  0  0  0  0  0  0
   24.2700   17.6760   27.0990 H   0  0  0  0  0  0  0  0  0  0  0  0
   25.3360   12.6830   17.8350 H   0  0  0  0  0  0  0  0  0  0  0  0
   26.0110   18.4630   24.2890 C   0  0  0  0  0  0  0  0  0  0  0  0
   23.8700   10.7920   20.9260 C   0  0  0  0  0  0  0  0  0  0  0  0
   23.7120   12.5220   19.2320 C   0  0  0  0  0  0  0  0  0  0  0  0
   26.5700   17.9990   23.4900 H   0  0  0  0  0  0  0  0  0  0  0  0
   25.6390   11.1160   19.2860 C   0  0  0  0  0  0  0  0  0  0  0  0
   27.1750   13.4880   23.6660 C   0  0  0  0  0  0  0  0  0  0  0  0
   29.7210   15.1070   22.9300 C   0  0  0  0  0  0  0  0  0  0  0  0
   23.6640   13.1990   23.8080 C   0  0  0  0  0  0  0  0  0  0  0  0
   27.2350   14.1150   21.3400 C   0  0  0  0  0  0  0  0  0  0  0  0
   27.5580   15.1550   21.2900 H   0  0  0  0  0  0  0  0  0  0  0  0
   27.3370   13.6550   20.3570 H   0  0  0  0  0  0  0  0  0  0  0  0
   20.4890   11.9020   25.1990 C   0  0  0  0  0  0  0  0  0  0  0  0
   25.4350   17.6910   25.2960 C   0  0  0  0  0  0  0  0  0  0  0  0
   20.8500   12.9300   25.1550 H   0  0  0  0  0  0  0  0  0  0  0  0
   20.0890   11.6150   24.2260 H   0  0  0  0  0  0  0  0  0  0  0  0
   25.8080   13.9890   21.8800 C   0  0  0  0  0  0  0  0  0  0  0  0
   25.3190   13.1130   21.4530 H   0  0  0  0  0  0  0  0  0  0  0  0
   25.2320   14.8820   21.6350 H   0  0  0  0  0  0  0  0  0  0  0  0
   20.1540   11.0320   27.3770 C   0  0  0  0  0  0  0  0  0  0  0  0
   19.4610   10.5130   28.0390 H   0  0  0  0  0  0  0  0  0  0  0  0
   20.7690   11.7180   27.9600 H   0  0  0  0  0  0  0  0  0  0  0  0
   19.4070   11.7700   26.2720 C   0  0  3  0  0  0  0  0  0  0  0  0
   18.9590   12.7220   26.5570 H   0  0  0  0  0  0  0  0  0  0  0  0
   21.6380   10.9530   25.6010 C   0  0  3  0  0  0  0  0  0  0  0  0
   22.4980   11.5110   25.9720 H   0  0  0  0  0  0  0  0  0  0  0  0
   27.9980   13.3320   22.4170 C   0  0  3  0  0  0  0  0  0  0  0  0
   31.1870   15.4700   22.9610 C   0  0  0  0  0  0  0  0  0  0  0  0
   31.7790   14.6180   22.6270 H   0  0  0  0  0  0  0  0  0  0  0  0
   31.4740   15.7350   23.9780 H   0  0  0  0  0  0  0  0  0  0  0  0
   31.3650   16.3180   22.3000 H   0  0  0  0  0  0  0  0  0  0  0  0
   23.2770   10.0620   22.1220 C   0  0  0  0  0  0  0  0  0  0  0  0
   24.0490    9.4200   22.5450 H   0  0  0  0  0  0  0  0  0  0  0  0
   22.4480    9.4490   21.7690 H   0  0  0  0  0  0  0  0  0  0  0  0
   27.8650   11.8720   21.9640 C   0  0  3  0  0  0  0  0  0  0  0  0
   27.0780   11.8930   20.6780 C   0  0  0  0  0  0  0  0  0  0  0  0
   26.9540   10.8740   20.3110 H   0  0  0  0  0  0  0  0  0  0  0  0
   27.8170   12.7110   19.6490 C   0  0  0  0  0  0  0  0  0  0  0  0
   27.2490   12.7260   18.7200 H   0  0  0  0  0  0  0  0  0  0  0  0
   28.7970   12.2680   19.4690 H   0  0  0  0  0  0  0  0  0  0  0  0
   25.5880   16.1920   25.2840 C   0  0  0  0  0  0  0  0  0  0  0  0
   27.9410   13.7300   20.0160 H   0  0  0  0  0  0  0  0  0  0  0  0
   26.0980   12.3350   20.8580 H   0  0  0  0  0  0  0  0  0  0  0  0
   25.5430   15.8240   26.3090 H   0  0  0  0  0  0  0  0  0  0  0  0
   27.2880   11.3610   22.7350 H   0  0  0  0  0  0  0  0  0  0  0  0
   26.5550   15.9390   24.8500 H   0  0  0  0  0  0  0  0  0  0  0  0
   24.4840   15.5150   24.4650 C   0  0  0  0  0  0  0  0  0  0  0  0
   24.4070   15.9970   23.4900 H   0  0  0  0  0  0  0  0  0  0  0  0
   23.5340   15.6050   24.9910 H   0  0  0  0  0  0  0  0  0  0  0  0
   24.8240   14.0400   24.2780 C   0  0  3  0  0  0  0  0  0  0  0  0
   25.1090   13.7090   25.2770 H   0  0  0  0  0  0  0  0  0  0  0  0
   22.2260   10.1380   24.4290 C   0  0  3  0  0  0  0  0  0  0  0  0
   23.1120    9.6280   24.8060 H   0  0  0  0  0  0  0  0  0  0  0  0
   29.0960   11.0120   21.7030 C   0  0  0  0  0  0  0  0  0  0  0  0
   29.7880   11.0740   22.5430 H   0  0  0  0  0  0  0  0  0  0  0  0
   29.6680   11.3510   20.8390 H   0  0  0  0  0  0  0  0  0  0  0  0
   28.7150   10.0040   21.5410 H   0  0  0  0  0  0  0  0  0  0  0  0
   22.7500   10.9840   23.2440 C   0  0  3  0  0  0  0  0  0  0  0  0
   17.1490   11.5140   25.3650 C   0  0  0  0  0  0  0  0  0  0  0  0
   21.9310   11.5870   22.8520 H   0  0  0  0  0  0  0  0  0  0  0  0
   21.0040   10.0590   26.6180 N   0  3  0  0  0  0  0  0  0  0  0  0
   20.4440    9.3410   26.1810 H   0  0  0  0  0  0  0  0  0  0  0  0
   21.6960    9.6290   27.2150 H   0  0  0  0  0  0  0  0  0  0  0  0
   25.9260   13.8440   23.3410 N   0  0  0  0  0  0  0  0  0  0  0  0
   29.3680   13.8690   22.5250 N   0  0  0  0  0  0  0  0  0  0  0  0
   30.1200   13.2450   22.2690 H   0  0  0  0  0  0  0  0  0  0  0  0
   16.4130   11.4910   26.1690 H   0  0  0  0  0  0  0  0  0  0  0  0
   23.8270   11.8630   23.7040 N   0  0  0  0  0  0  0  0  0  0  0  0
   24.7190   11.4580   23.9510 H   0  0  0  0  0  0  0  0  0  0  0  0
   27.5680   13.2710   24.7900 O   0  0  0  0  0  0  0  0  0  0  0  0
   28.9360   15.9740   23.2820 O   0  0  0  0  0  0  0  0  0  0  0  0
   22.5950   13.7100   23.5250 O   0  0  0  0  0  0  0  0  0  0  0  0
   17.3390   12.5480   25.0770 H   0  0  0  0  0  0  0  0  0  0  0  0
   21.2320    9.2070   23.9900 O   0  0  0  0  0  0  0  0  0  0  0  0
   20.4810    9.7130   23.6710 H   0  0  0  0  0  0  0  0  0  0  0  0
   23.0210   13.5220   18.6820 F   0  0  0  0  0  0  0  0  0  0  0  0
   26.8390   10.7710   18.7780 F   0  0  0  0  0  0  0  0  0  0  0  0
   18.3730   10.8990   25.8080 O   0  0  0  0  0  0  0  0  0  0  0  0
   15.6860    9.4190   22.0960 C   0  0  0  0  0  0  0  0  0  0  0  0
   15.2120    8.7400   21.0390 F   0  0  0  0  0  0  0  0  0  0  0  0
   15.5460    8.8930   23.3800 C   0  0  0  0  0  0  0  0  0  0  0  0
   15.0540    7.9340   23.5250 H   0  0  0  0  0  0  0  0  0  0  0  0
   16.0380    9.5970   24.4790 C   0  0  0  0  0  0  0  0  0  0  0  0
   15.9290    9.1870   25.4800 H   0  0  0  0  0  0  0  0  0  0  0  0
   16.6700   10.8270   24.2930 C   0  0  0  0  0  0  0  0  0  0  0  0
   16.8090   11.3530   23.0090 C   0  0  0  0  0  0  0  0  0  0  0  0
   17.3010   12.3110   22.8640 H   0  0  0  0  0  0  0  0  0  0  0  0
   16.3170   10.6490   21.9100 C   0  0  0  0  0  0  0  0  0  0  0  0
   16.4250   11.0560   20.9150 H   0  0  0  0  0  0  0  0  0  0  0  0
  1  2  1  0  0  0  0
  1  3  2  0  0  0  0
  1  5  1  0  0  0  0
  3  4  1  0  0  0  0
  3 10  1  0  0  0  0
  5  7  1  0  0  0  0
  5 15  2  0  0  0  0
  6  8  1  0  0  0  0
  6 16  2  0  0  0  0
  6 17  1  0  0  0  0
  9 11  1  0  0  0  0
  9 16  1  0  0  0  0
  9 19  2  0  0  0  0
 10 13  1  0  0  0  0
 10 27  2  0  0  0  0
 12 14  1  0  0  0  0
 12 17  2  0  0  0  0
 12 19  1  0  0  0  0
 15 18  1  0  0  0  0
 15 27  1  0  0  0  0
 16 45  1  0  0  0  0
 17 89  1  0  0  0  0
 19 90  1  0  0  0  0
 20 40  1  0  0  0  0
 20 77  1  0  0  0  0
 20 83  2  0  0  0  0
 21 41  1  0  0  0  0
 21 78  1  0  0  0  0
 21 84  2  0  0  0  0
 22 63  1  0  0  0  0
 22 81  1  0  0  0  0
 22 85  2  0  0  0  0
 23 24  1  0  0  0  0
 23 25  1  0  0  0  0
 23 30  1  0  0  0  0
 23 40  1  0  0  0  0
 26 28  1  0  0  0  0
 26 29  1  0  0  0  0
 26 36  1  0  0  0  0
 26 38  1  0  0  0  0
 27 54  1  0  0  0  0
 30 31  1  0  0  0  0
 30 32  1  0  0  0  0
 30 77  1  0  0  0  0
 33 34  1  0  0  0  0
 33 35  1  0  0  0  0
 33 36  1  0  0  0  0
 33 74  1  0  0  0  0
 36 37  1  0  0  0  0
 36 91  1  0  0  0  0
 38 39  1  0  0  0  0
 38 65  1  0  0  0  0
 38 74  1  0  0  0  0
 40 48  1  0  0  0  0
 40 78  1  0  0  0  0
 41 42  1  0  0  0  0
 41 43  1  0  0  0  0
 41 44  1  0  0  0  0
 45 46  1  0  0  0  0
 45 47  1  0  0  0  0
 45 71  1  0  0  0  0
 48 49  1  0  0  0  0
 48 58  1  0  0  0  0
 48 67  1  0  0  0  0
 49 50  1  0  0  0  0
 49 51  1  0  0  0  0
 49 56  1  0  0  0  0
 51 52  1  0  0  0  0
 51 53  1  0  0  0  0
 51 55  1  0  0  0  0
 54 57  1  0  0  0  0
 54 59  1  0  0  0  0
 54 60  1  0  0  0  0
 60 61  1  0  0  0  0
 60 62  1  0  0  0  0
 60 63  1  0  0  0  0
 63 64  1  0  0  0  0
 63 77  1  0  0  0  0
 65 66  1  0  0  0  0
 65 71  1  0  0  0  0
 65 87  1  0  0  0  0
 67 68  1  0  0  0  0
 67 69  1  0  0  0  0
 67 70  1  0  0  0  0
 71 73  1  0  0  0  0
 71 81  1  0  0  0  0
 72 80  1  0  0  0  0
 72 86  1  0  0  0  0
 72 91  1  0  0  0  0
 72 98  1  0  0  0  0
 74 75  1  0  0  0  0
 74 76  1  0  0  0  0
 78 79  1  0  0  0  0
 81 82  1  0  0  0  0
 87 88  1  0  0  0  0
 92 93  1  0  0  0  0
 92 94  1  0  0  0  0
 92101  2  0  0  0  0
 94 95  1  0  0  0  0
 94 96  2  0  0  0  0
 96 97  1  0  0  0  0
 96 98  1  0  0  0  0
 98 99  2  0  0  0  0
 99100  1  0  0  0  0
 99101  1  0  0  0  0
101102  1  0  0  0  0
M  CHG  1  74   1
M  END
>  <PARENT_CMPD_ID>
CHEMBL1916168

>  <STANDARD_TYPE>
IC50

>  <RELATION>
=

>  <STANDARD_VALUE>
10

>  <STANDARD_UNITS>
nM

>  <COMPOUND_KEY>
31d

>  <PUBMED_ID>
21782431

>  <JOURNAL>
Bioorg.Med.Chem.Lett.

>  <YEAR>
2011

>  <VOLUME>
21

>  <FIRST_PAGE>
6916

>  <Company>
BMS

>  <idx>
411

>  <Model>
Valid

>  <target>
8

>  <des_pred_mlr>
7.9847698

>  <RF_Canvas>
7.8351293

>  <DNN_Canvas>
8.1248579

>  <pred_CoMFA>
9.7151003

>  <pred_COMSIA>
8.9420996

>  <pred_abm5>
9.6353426

>  <pred_ff8>
8.2384605

>  <pred_gau6>
9.7712317

>  <CID>
BACE_411

>  <active>
1

>  <des_class_bayes>
1

>  <maacs_class_bayes>
1

>  <radial_class_bayes>
0

>  <dend_class_bayes>
1

>  <molprint_class_bayes>
1

>  <RF_canvas>
1

>  <DNN_canvas>
1

$$$$
CHEMBL1824145
  MOE2015           3D

 47 50  0  0  1  0  0  0  0  0999 V2000
   16.6230   10.9890   21.4690 C   0  0  0  0  0  0  0  0  0  0  0  0
   15.6480   11.4440   21.2950 H   0  0  0  0  0  0  0  0  0  0  0  0
   16.9540   11.2150   22.4820 H   0  0  0  0  0  0  0  0  0  0  0  0
   16.5480    9.9090   21.3440 H   0  0  0  0  0  0  0  0  0  0  0  0
   18.9020   10.9230   20.7310 N   0  0  0  0  0  0  0  0  0  0  0  0
   22.2720   12.9270   22.7600 O   0  0  0  0  0  0  0  0  0  0  0  0
   17.6230   11.5440   20.4750 C   0  0  0  0  0  0  0  0  0  0  0  0
   17.7050   12.6240   20.5980 H   0  0  0  0  0  0  0  0  0  0  0  0
   17.2990   11.3170   19.4590 H   0  0  0  0  0  0  0  0  0  0  0  0
   19.1230    9.6740   20.3070 N   0  0  0  0  0  0  0  0  0  0  0  0
   19.9550   11.4720   21.3840 C   0  0  0  0  0  0  0  0  0  0  0  0
   20.0090   12.4590   21.8180 H   0  0  0  0  0  0  0  0  0  0  0  0
   22.7900   11.1750   24.1580 N   0  0  0  0  0  0  0  0  0  0  0  0
   20.9380   10.5140   21.3800 C   0  0  0  0  0  0  0  0  0  0  0  0
   22.4690    9.3930   22.8380 N   0  0  0  0  0  0  0  0  0  0  0  0
   20.3610    9.4240   20.7010 C   0  0  0  0  0  0  0  0  0  0  0  0
   20.8710    8.4890   20.5220 H   0  0  0  0  0  0  0  0  0  0  0  0
   22.8120    9.0120   25.0300 N   0  0  0  0  0  0  0  0  0  0  0  0
   22.4800    8.0650   24.9150 H   0  0  0  0  0  0  0  0  0  0  0  0
   23.1100    9.3350   25.9390 H   0  0  0  0  0  0  0  0  0  0  0  0
   22.2970   10.5960   21.9830 C   0  0  3  0  0  0  0  0  0  0  0  0
   28.9400    9.6760   21.8070 N   0  0  0  0  0  0  0  0  0  0  0  0
   22.4290   11.7400   22.9820 C   0  0  0  0  0  0  0  0  0  0  0  0
   29.3350   11.8070   20.8130 C   0  0  0  0  0  0  0  0  0  0  0  0
   30.0140   12.6160   20.5870 H   0  0  0  0  0  0  0  0  0  0  0  0
   22.8560    9.8370   23.9800 C   0  0  0  0  0  0  0  0  0  0  0  0
   23.0170   11.9520   25.3510 C   0  0  0  0  0  0  0  0  0  0  0  0
   22.8760   13.0100   25.1280 H   0  0  0  0  0  0  0  0  0  0  0  0
   24.0350   11.7870   25.7040 H   0  0  0  0  0  0  0  0  0  0  0  0
   22.3110   11.6460   26.1230 H   0  0  0  0  0  0  0  0  0  0  0  0
   23.3350   10.8070   20.8720 C   0  0  0  0  0  0  0  0  0  0  0  0
   22.9920   11.0920   19.5340 C   0  0  0  0  0  0  0  0  0  0  0  0
   21.9520   11.1680   19.2540 H   0  0  0  0  0  0  0  0  0  0  0  0
   23.9790   11.2760   18.5700 C   0  0  0  0  0  0  0  0  0  0  0  0
   23.7000   11.4870   17.5480 H   0  0  0  0  0  0  0  0  0  0  0  0
   25.3240   11.1890   18.9180 C   0  0  0  0  0  0  0  0  0  0  0  0
   26.0810   11.3390   18.1620 H   0  0  0  0  0  0  0  0  0  0  0  0
   25.7110   10.9080   20.2410 C   0  0  0  0  0  0  0  0  0  0  0  0
   24.7010   10.7290   21.1920 C   0  0  0  0  0  0  0  0  0  0  0  0
   24.9830   10.5220   22.2140 H   0  0  0  0  0  0  0  0  0  0  0  0
   27.1120   10.8280   20.6810 C   0  0  0  0  0  0  0  0  0  0  0  0
   27.6460    9.7590   21.3920 C   0  0  0  0  0  0  0  0  0  0  0  0
   26.8280    8.7380   21.6900 F   0  0  0  0  0  0  0  0  0  0  0  0
   29.7290   10.7180   21.4930 C   0  0  0  0  0  0  0  0  0  0  0  0
   30.7600   10.6760   21.8120 H   0  0  0  0  0  0  0  0  0  0  0  0
   28.0330   11.8330   20.4260 C   0  0  0  0  0  0  0  0  0  0  0  0
   27.6900   12.6990   19.8800 H   0  0  0  0  0  0  0  0  0  0  0  0
  1  2  1  0  0  0  0
  1  3  1  0  0  0  0
  1  4  1  0  0  0  0
  1  7  1  0  0  0  0
  5  7  1  0  0  0  0
  5 10  1  0  0  0  0
  5 11  1  0  0  0  0
  6 23  2  0  0  0  0
  7  8  1  0  0  0  0
  7  9  1  0  0  0  0
 10 16  2  0  0  0  0
 11 12  1  0  0  0  0
 11 14  2  0  0  0  0
 13 23  1  0  0  0  0
 13 26  1  0  0  0  0
 13 27  1  0  0  0  0
 14 16  1  0  0  0  0
 14 21  1  0  0  0  0
 15 21  1  0  0  0  0
 15 26  2  0  0  0  0
 16 17  1  0  0  0  0
 18 19  1  0  0  0  0
 18 20  1  0  0  0  0
 18 26  1  0  0  0  0
 21 23  1  0  0  0  0
 21 31  1  0  0  0  0
 22 42  2  0  0  0  0
 22 44  1  0  0  0  0
 24 25  1  0  0  0  0
 24 44  2  0  0  0  0
 24 46  1  0  0  0  0
 27 28  1  0  0  0  0
 27 29  1  0  0  0  0
 27 30  1  0  0  0  0
 31 32  1  0  0  0  0
 31 39  2  0  0  0  0
 32 33  1  0  0  0  0
 32 34  2  0  0  0  0
 34 35  1  0  0  0  0
 34 36  1  0  0  0  0
 36 37  1  0  0  0  0
 36 38  2  0  0  0  0
 38 39  1  0  0  0  0
 38 41  1  0  0  0  0
 39 40  1  0  0  0  0
 41 42  1  0  0  0  0
 41 46  2  0  0  0  0
 42 43  1  0  0  0  0
 44 45  1  0  0  0  0
 46 47  1  0  0  0  0
M  END
>  <PARENT_CMPD_ID>
CHEMBL1824145

>  <STANDARD_TYPE>
IC50

>  <RELATION>
=

>  <STANDARD_VALUE>
10

>  <STANDARD_UNITS>
nM

>  <COMPOUND_KEY>
38S

>  <PUBMED_ID>
21835615

>  <JOURNAL>
Bioorg.Med.Chem.Lett.

>  <YEAR>
2011

>  <VOLUME>
21

>  <FIRST_PAGE>
5164

>  <Company>
Pfizer

>  <idx>
412

>  <Model>
Valid

>  <target>
8

>  <des_pred_mlr>
6.1200099

>  <RF_Canvas>
7.3046737

>  <DNN_Canvas>
7.2489743

>  <pred_CoMFA>
7.7291999

>  <pred_COMSIA>
6.8903999

>  <pred_abm5>
7.3366141

>  <pred_ff8>
6.2526598

>  <pred_gau6>
7.150219

>  <CID>
BACE_412

>  <active>
1

>  <des_class_bayes>
0

>  <maacs_class_bayes>
1

>  <radial_class_bayes>
0

>  <dend_class_bayes>
1

>  <molprint_class_bayes>
1

>  <RF_canvas>
1

>  <DNN_canvas>
1

$$$$
CHEMBL1824344
  MOE2015           3D

 53 56  0  0  1  0  0  0  0  0999 V2000
   16.6230   10.9890   21.4690 C   0  0  0  0  0  0  0  0  0  0  0  0
   16.9540   11.2150   22.4820 H   0  0  0  0  0  0  0  0  0  0  0  0
   15.2740   11.6180   21.2280 C   0  0  0  0  0  0  0  0  0  0  0  0
   14.2780   11.0660   22.2170 C   0  0  0  0  0  0  0  0  0  0  0  0
   13.3030   11.5210   22.0430 H   0  0  0  0  0  0  0  0  0  0  0  0
   14.6090   11.2930   23.2310 H   0  0  0  0  0  0  0  0  0  0  0  0
   14.2030    9.9860   22.0920 H   0  0  0  0  0  0  0  0  0  0  0  0
   14.9430   11.3920   20.2150 H   0  0  0  0  0  0  0  0  0  0  0  0
   15.3490   12.6990   21.3530 H   0  0  0  0  0  0  0  0  0  0  0  0
   16.5480    9.9090   21.3450 H   0  0  0  0  0  0  0  0  0  0  0  0
   18.9020   10.9230   20.7310 N   0  0  0  0  0  0  0  0  0  0  0  0
   22.2720   12.9270   22.7600 O   0  0  0  0  0  0  0  0  0  0  0  0
   17.6230   11.5440   20.4750 C   0  0  0  0  0  0  0  0  0  0  0  0
   17.7050   12.6240   20.5980 H   0  0  0  0  0  0  0  0  0  0  0  0
   17.2990   11.3170   19.4590 H   0  0  0  0  0  0  0  0  0  0  0  0
   19.1230    9.6740   20.3070 N   0  0  0  0  0  0  0  0  0  0  0  0
   19.9550   11.4720   21.3840 C   0  0  0  0  0  0  0  0  0  0  0  0
   20.0090   12.4590   21.8180 H   0  0  0  0  0  0  0  0  0  0  0  0
   22.7900   11.1750   24.1580 N   0  0  0  0  0  0  0  0  0  0  0  0
   20.9380   10.5140   21.3800 C   0  0  0  0  0  0  0  0  0  0  0  0
   22.4690    9.3930   22.8380 N   0  0  0  0  0  0  0  0  0  0  0  0
   20.3610    9.4240   20.7010 C   0  0  0  0  0  0  0  0  0  0  0  0
   20.8710    8.4890   20.5220 H   0  0  0  0  0  0  0  0  0  0  0  0
   22.8120    9.0120   25.0300 N   0  0  0  0  0  0  0  0  0  0  0  0
   22.4800    8.0650   24.9150 H   0  0  0  0  0  0  0  0  0  0  0  0
   23.1100    9.3350   25.9390 H   0  0  0  0  0  0  0  0  0  0  0  0
   22.2970   10.5960   21.9830 C   0  0  3  0  0  0  0  0  0  0  0  0
   28.9400    9.6760   21.8070 N   0  0  0  0  0  0  0  0  0  0  0  0
   22.4290   11.7400   22.9820 C   0  0  0  0  0  0  0  0  0  0  0  0
   29.3350   11.8070   20.8130 C   0  0  0  0  0  0  0  0  0  0  0  0
   30.0140   12.6160   20.5870 H   0  0  0  0  0  0  0  0  0  0  0  0
   22.8560    9.8370   23.9800 C   0  0  0  0  0  0  0  0  0  0  0  0
   23.0170   11.9520   25.3510 C   0  0  0  0  0  0  0  0  0  0  0  0
   22.8760   13.0100   25.1280 H   0  0  0  0  0  0  0  0  0  0  0  0
   24.0350   11.7870   25.7040 H   0  0  0  0  0  0  0  0  0  0  0  0
   22.3110   11.6460   26.1230 H   0  0  0  0  0  0  0  0  0  0  0  0
   23.3350   10.8070   20.8720 C   0  0  0  0  0  0  0  0  0  0  0  0
   22.9920   11.0920   19.5340 C   0  0  0  0  0  0  0  0  0  0  0  0
   21.9520   11.1680   19.2540 H   0  0  0  0  0  0  0  0  0  0  0  0
   23.9790   11.2760   18.5700 C   0  0  0  0  0  0  0  0  0  0  0  0
   23.7000   11.4870   17.5480 H   0  0  0  0  0  0  0  0  0  0  0  0
   25.3240   11.1890   18.9180 C   0  0  0  0  0  0  0  0  0  0  0  0
   26.0810   11.3390   18.1620 H   0  0  0  0  0  0  0  0  0  0  0  0
   25.7110   10.9080   20.2410 C   0  0  0  0  0  0  0  0  0  0  0  0
   24.7010   10.7290   21.1920 C   0  0  0  0  0  0  0  0  0  0  0  0
   24.9830   10.5220   22.2140 H   0  0  0  0  0  0  0  0  0  0  0  0
   27.1120   10.8280   20.6810 C   0  0  0  0  0  0  0  0  0  0  0  0
   27.6460    9.7590   21.3920 C   0  0  0  0  0  0  0  0  0  0  0  0
   26.8280    8.7380   21.6900 F   0  0  0  0  0  0  0  0  0  0  0  0
   29.7290   10.7180   21.4930 C   0  0  0  0  0  0  0  0  0  0  0  0
   30.7600   10.6760   21.8120 H   0  0  0  0  0  0  0  0  0  0  0  0
   28.0330   11.8330   20.4260 C   0  0  0  0  0  0  0  0  0  0  0  0
   27.6900   12.6990   19.8800 H   0  0  0  0  0  0  0  0  0  0  0  0
  1  2  1  0  0  0  0
  1  3  1  0  0  0  0
  1 10  1  0  0  0  0
  1 13  1  0  0  0  0
  3  4  1  0  0  0  0
  3  8  1  0  0  0  0
  3  9  1  0  0  0  0
  4  5  1  0  0  0  0
  4  6  1  0  0  0  0
  4  7  1  0  0  0  0
 11 13  1  0  0  0  0
 11 16  1  0  0  0  0
 11 17  1  0  0  0  0
 12 29  2  0  0  0  0
 13 14  1  0  0  0  0
 13 15  1  0  0  0  0
 16 22  2  0  0  0  0
 17 18  1  0  0  0  0
 17 20  2  0  0  0  0
 19 29  1  0  0  0  0
 19 32  1  0  0  0  0
 19 33  1  0  0  0  0
 20 22  1  0  0  0  0
 20 27  1  0  0  0  0
 21 27  1  0  0  0  0
 21 32  2  0  0  0  0
 22 23  1  0  0  0  0
 24 25  1  0  0  0  0
 24 26  1  0  0  0  0
 24 32  1  0  0  0  0
 27 29  1  0  0  0  0
 27 37  1  0  0  0  0
 28 48  2  0  0  0  0
 28 50  1  0  0  0  0
 30 31  1  0  0  0  0
 30 50  2  0  0  0  0
 30 52  1  0  0  0  0
 33 34  1  0  0  0  0
 33 35  1  0  0  0  0
 33 36  1  0  0  0  0
 37 38  1  0  0  0  0
 37 45  2  0  0  0  0
 38 39  1  0  0  0  0
 38 40  2  0  0  0  0
 40 41  1  0  0  0  0
 40 42  1  0  0  0  0
 42 43  1  0  0  0  0
 42 44  2  0  0  0  0
 44 45  1  0  0  0  0
 44 47  1  0  0  0  0
 45 46  1  0  0  0  0
 47 48  1  0  0  0  0
 47 52  2  0  0  0  0
 48 49  1  0  0  0  0
 50 51  1  0  0  0  0
 52 53  1  0  0  0  0
M  END
>  <PARENT_CMPD_ID>
CHEMBL1824344

>  <STANDARD_TYPE>
IC50

>  <RELATION>
=

>  <STANDARD_VALUE>
10

>  <STANDARD_UNITS>
nM

>  <COMPOUND_KEY>
47

>  <PUBMED_ID>
21835615

>  <JOURNAL>
Bioorg.Med.Chem.Lett.

>  <YEAR>
2011

>  <VOLUME>
21

>  <FIRST_PAGE>
5164

>  <Company>
Pfizer

>  <idx>
413

>  <Model>
Valid

>  <target>
8

>  <des_pred_mlr>
6.20227

>  <RF_Canvas>
7.266706

>  <DNN_Canvas>
7.2418928

>  <pred_CoMFA>
8.4159002

>  <pred_COMSIA>
7.1170998

>  <pred_abm5>
7.5609179

>  <pred_ff8>
6.4084301

>  <pred_gau6>
7.4589906

>  <CID>
BACE_413

>  <active>
1

>  <des_class_bayes>
0

>  <maacs_class_bayes>
1

>  <radial_class_bayes>
0

>  <dend_class_bayes>
1

>  <molprint_class_bayes>
1

>  <RF_canvas>
1

>  <DNN_canvas>
1

$$$$
CHEMBL1824361
  MOE2015           3D

 49 52  0  0  1  0  0  0  0  0999 V2000
   22.9580   11.7900   25.1020 C   0  0  0  0  0  0  0  0  0  0  0  0
   22.9060   12.8600   24.8980 H   0  0  0  0  0  0  0  0  0  0  0  0
   23.9590   11.5340   25.4490 H   0  0  0  0  0  0  0  0  0  0  0  0
   22.2300   11.5310   25.8710 H   0  0  0  0  0  0  0  0  0  0  0  0
   22.6660   11.0590   23.9000 N   0  0  0  0  0  0  0  0  0  0  0  0
   22.4010   12.8770   22.5250 O   0  0  0  0  0  0  0  0  0  0  0  0
   18.5230   11.2740   20.2000 S   0  0  0  0  0  0  0  0  0  0  0  0
   22.4100   11.6630   22.7270 C   0  0  0  0  0  0  0  0  0  0  0  0
   22.4080    9.2830   22.5610 N   0  0  0  0  0  0  0  0  0  0  0  0
   22.1990   10.5170   21.7400 C   0  0  3  0  0  0  0  0  0  0  0  0
   22.7310    8.9340   24.8050 N   0  0  0  0  0  0  0  0  0  0  0  0
   22.6320    7.9350   24.6990 H   0  0  0  0  0  0  0  0  0  0  0  0
   22.9070    9.3300   25.7170 H   0  0  0  0  0  0  0  0  0  0  0  0
   22.6300    9.7310   23.7410 C   0  0  0  0  0  0  0  0  0  0  0  0
   28.6440    9.5760   22.0560 N   0  0  0  0  0  0  0  0  0  0  0  0
   23.2120   10.7130   20.6190 C   0  0  0  0  0  0  0  0  0  0  0  0
   22.9090   10.9710   19.2790 C   0  0  0  0  0  0  0  0  0  0  0  0
   21.8810   11.0440   18.9550 H   0  0  0  0  0  0  0  0  0  0  0  0
   23.9540   11.1330   18.3640 C   0  0  0  0  0  0  0  0  0  0  0  0
   23.7190   11.3230   17.3270 H   0  0  0  0  0  0  0  0  0  0  0  0
   25.2890   11.0560   18.7510 C   0  0  0  0  0  0  0  0  0  0  0  0
   26.0730   11.1990   18.0230 H   0  0  0  0  0  0  0  0  0  0  0  0
   25.6130   10.7910   20.0930 C   0  0  0  0  0  0  0  0  0  0  0  0
   24.5450   10.6380   20.9770 C   0  0  0  0  0  0  0  0  0  0  0  0
   24.7760   10.4470   22.0150 H   0  0  0  0  0  0  0  0  0  0  0  0
   26.9950   10.7050   20.6250 C   0  0  0  0  0  0  0  0  0  0  0  0
   27.9930   11.6230   20.2520 C   0  0  0  0  0  0  0  0  0  0  0  0
   27.7620   12.4190   19.5590 H   0  0  0  0  0  0  0  0  0  0  0  0
   29.2790   11.5070   20.7750 C   0  0  0  0  0  0  0  0  0  0  0  0
   30.0500   12.2080   20.4910 H   0  0  0  0  0  0  0  0  0  0  0  0
   29.5600   10.4740   21.6710 C   0  0  0  0  0  0  0  0  0  0  0  0
   30.5600   10.3960   22.0710 H   0  0  0  0  0  0  0  0  0  0  0  0
   27.3980    9.7170   21.5280 C   0  0  0  0  0  0  0  0  0  0  0  0
   26.4700    8.8250   21.9090 F   0  0  0  0  0  0  0  0  0  0  0  0
   20.8240   10.5150   21.1350 C   0  0  0  0  0  0  0  0  0  0  0  0
   20.1420    9.3330   20.7260 C   0  0  0  0  0  0  0  0  0  0  0  0
   20.5520    8.3380   20.8130 H   0  0  0  0  0  0  0  0  0  0  0  0
   18.9000    9.6110   20.2080 C   0  0  0  0  0  0  0  0  0  0  0  0
   20.0450   11.6280   20.9050 C   0  0  0  0  0  0  0  0  0  0  0  0
   20.3640   12.6310   21.1470 H   0  0  0  0  0  0  0  0  0  0  0  0
   17.8960    8.6760   19.6960 C   0  0  0  0  0  0  0  0  0  0  0  0
   18.2760    7.2080   19.5900 C   0  0  0  0  0  0  0  0  0  0  0  0
   19.3210    7.1000   19.2850 H   0  0  0  0  0  0  0  0  0  0  0  0
   17.6780    6.7660   18.7850 H   0  0  0  0  0  0  0  0  0  0  0  0
   18.0010    6.4760   20.8900 C   0  0  0  0  0  0  0  0  0  0  0  0
   18.2330    5.4120   20.7840 H   0  0  0  0  0  0  0  0  0  0  0  0
   16.9480    6.5700   21.1760 H   0  0  0  0  0  0  0  0  0  0  0  0
   18.6030    6.8760   21.7110 H   0  0  0  0  0  0  0  0  0  0  0  0
   16.7560    9.0140   19.3680 O   0  0  0  0  0  0  0  0  0  0  0  0
  1  2  1  0  0  0  0
  1  3  1  0  0  0  0
  1  4  1  0  0  0  0
  1  5  1  0  0  0  0
  5  8  1  0  0  0  0
  5 14  1  0  0  0  0
  6  8  2  0  0  0  0
  7 38  1  0  0  0  0
  7 39  1  0  0  0  0
  8 10  1  0  0  0  0
  9 10  1  0  0  0  0
  9 14  2  0  0  0  0
 10 16  1  0  0  0  0
 10 35  1  0  0  0  0
 11 12  1  0  0  0  0
 11 13  1  0  0  0  0
 11 14  1  0  0  0  0
 15 31  2  0  0  0  0
 15 33  1  0  0  0  0
 16 17  1  0  0  0  0
 16 24  2  0  0  0  0
 17 18  1  0  0  0  0
 17 19  2  0  0  0  0
 19 20  1  0  0  0  0
 19 21  1  0  0  0  0
 21 22  1  0  0  0  0
 21 23  2  0  0  0  0
 23 24  1  0  0  0  0
 23 26  1  0  0  0  0
 24 25  1  0  0  0  0
 26 27  1  0  0  0  0
 26 33  2  0  0  0  0
 27 28  1  0  0  0  0
 27 29  2  0  0  0  0
 29 30  1  0  0  0  0
 29 31  1  0  0  0  0
 31 32  1  0  0  0  0
 33 34  1  0  0  0  0
 35 36  1  0  0  0  0
 35 39  2  0  0  0  0
 36 37  1  0  0  0  0
 36 38  2  0  0  0  0
 38 41  1  0  0  0  0
 39 40  1  0  0  0  0
 41 42  1  0  0  0  0
 41 49  2  0  0  0  0
 42 43  1  0  0  0  0
 42 44  1  0  0  0  0
 42 45  1  0  0  0  0
 45 46  1  0  0  0  0
 45 47  1  0  0  0  0
 45 48  1  0  0  0  0
M  END
>  <PARENT_CMPD_ID>
CHEMBL1824361

>  <STANDARD_TYPE>
IC50

>  <RELATION>
=

>  <STANDARD_VALUE>
10

>  <STANDARD_UNITS>
nM

>  <COMPOUND_KEY>
63S

>  <PUBMED_ID>
21835615

>  <JOURNAL>
Bioorg.Med.Chem.Lett.

>  <YEAR>
2011

>  <VOLUME>
21

>  <FIRST_PAGE>
5164

>  <Company>
Pfizer

>  <idx>
414

>  <Model>
Valid

>  <target>
8

>  <des_pred_mlr>
6.4759498

>  <RF_Canvas>
7.1032777

>  <DNN_Canvas>
7.2452741

>  <pred_CoMFA>
7.1438999

>  <pred_COMSIA>
6.7254

>  <pred_abm5>
7.1199474

>  <pred_ff8>
5.4258304

>  <pred_gau6>
7.2228231

>  <CID>
BACE_414

>  <active>
1

>  <des_class_bayes>
0

>  <maacs_class_bayes>
1

>  <radial_class_bayes>
0

>  <dend_class_bayes>
0

>  <molprint_class_bayes>
0

>  <RF_canvas>
1

>  <DNN_canvas>
1

$$$$
23537249_36
  MOE2015           3D

 50 53  0  0  1  0  0  0  0  0999 V2000
   25.2070   10.9820   20.0200 C   0  0  0  0  0  0  0  0  0  0  0  0
   24.7330   11.1510   18.7190 C   0  0  0  0  0  0  0  0  0  0  0  0
   23.3660   11.2260   18.4590 C   0  0  0  0  0  0  0  0  0  0  0  0
   22.4450   11.1280   19.4920 C   0  0  0  0  0  0  0  0  0  0  0  0
   22.8890   11.0000   20.8000 C   0  0  0  0  0  0  0  0  0  0  0  0
   24.2650   10.9110   21.0430 C   0  0  0  0  0  0  0  0  0  0  0  0
   21.1290   11.1680   19.1360 O   0  0  0  0  0  0  0  0  0  0  0  0
   20.2150   10.6290   20.1030 C   0  0  0  0  0  0  0  0  0  0  0  0
   20.4880   11.1910   21.4970 C   0  0  0  0  0  0  0  0  0  0  0  0
   21.9260   10.9590   21.9560 C   0  0  3  0  0  0  0  0  0  0  0  0
   26.6320   10.9220   20.3370 C   0  0  0  0  0  0  0  0  0  0  0  0
   18.8250   11.0880   19.6650 C   0  0  0  0  0  0  0  0  0  0  0  0
   20.2400    9.1020   20.0500 C   0  0  0  0  0  0  0  0  0  0  0  0
   22.2870   11.9990   23.0060 C   0  0  0  0  0  0  0  0  0  0  0  0
   22.5700   11.3090   24.1430 N   0  0  0  0  0  0  0  0  0  0  0  0
   22.4010    9.9920   23.9040 C   0  0  0  0  0  0  0  0  0  0  0  0
   22.0230    9.6770   22.7040 N   0  0  0  0  0  0  0  0  0  0  0  0
   22.6230    9.0700   24.8660 N   0  0  0  0  0  0  0  0  0  0  0  0
   22.3380   13.2070   22.8370 O   0  0  0  0  0  0  0  0  0  0  0  0
   22.9860   11.9270   25.3750 C   0  0  0  0  0  0  0  0  0  0  0  0
   27.1570   10.0160   21.2610 C   0  0  0  0  0  0  0  0  0  0  0  0
   28.4530    9.9540   21.6460 N   0  0  0  0  0  0  0  0  0  0  0  0
   29.2880   10.8340   21.0620 C   0  0  0  0  0  0  0  0  0  0  0  0
   28.8860   11.7690   20.1250 C   0  0  0  0  0  0  0  0  0  0  0  0
   27.5420   11.8100   19.7670 C   0  0  0  0  0  0  0  0  0  0  0  0
   25.4230   11.2110   17.8800 H   0  0  0  0  0  0  0  0  0  0  0  0
   23.0170   11.3410   17.4360 H   0  0  0  0  0  0  0  0  0  0  0  0
   24.6080   10.8050   22.0710 H   0  0  0  0  0  0  0  0  0  0  0  0
   19.7750   10.7870   22.2280 H   0  0  0  0  0  0  0  0  0  0  0  0
   20.3030   12.2750   21.4630 H   0  0  0  0  0  0  0  0  0  0  0  0
   18.7660   12.1830   19.6250 H   0  0  0  0  0  0  0  0  0  0  0  0
   18.0430   10.7250   20.3400 H   0  0  0  0  0  0  0  0  0  0  0  0
   18.5960   10.7370   18.6510 H   0  0  0  0  0  0  0  0  0  0  0  0
   21.2290    8.6900   20.2700 H   0  0  0  0  0  0  0  0  0  0  0  0
   19.9900    8.7460   19.0440 H   0  0  0  0  0  0  0  0  0  0  0  0
   19.5260    8.6640   20.7560 H   0  0  0  0  0  0  0  0  0  0  0  0
   22.4840    8.0940   24.6360 H   0  0  0  0  0  0  0  0  0  0  0  0
   22.9130    9.3010   25.8050 H   0  0  0  0  0  0  0  0  0  0  0  0
   23.0310   13.0150   25.2790 H   0  0  0  0  0  0  0  0  0  0  0  0
   23.9710   11.5400   25.6500 H   0  0  0  0  0  0  0  0  0  0  0  0
   22.2780   11.6560   26.1650 H   0  0  0  0  0  0  0  0  0  0  0  0
   26.5230    9.2770   21.7450 H   0  0  0  0  0  0  0  0  0  0  0  0
   30.3240   10.7620   21.3820 H   0  0  0  0  0  0  0  0  0  0  0  0
   27.2080   12.5590   19.0510 H   0  0  0  0  0  0  0  0  0  0  0  0
   29.8250   12.6750   19.5460 C   0  0  0  0  0  0  0  0  0  0  0  0
   30.6140   13.4370   19.0570 C   0  0  0  0  0  0  0  0  0  0  0  0
   31.5740   14.3660   18.4620 C   0  0  0  0  0  0  0  0  0  0  0  0
   32.2140   14.8100   19.2310 H   0  0  0  0  0  0  0  0  0  0  0  0
   31.0580   15.1780   17.9400 H   0  0  0  0  0  0  0  0  0  0  0  0
   32.2160   13.8520   17.7400 H   0  0  0  0  0  0  0  0  0  0  0  0
  1  2  1  0  0  0  0
  1  6  2  0  0  0  0
  1 11  1  0  0  0  0
  2  3  2  0  0  0  0
  2 26  1  0  0  0  0
  3  4  1  0  0  0  0
  3 27  1  0  0  0  0
  4  5  2  0  0  0  0
  4  7  1  0  0  0  0
  5  6  1  0  0  0  0
  5 10  1  0  0  0  0
  6 28  1  0  0  0  0
  7  8  1  0  0  0  0
  8  9  1  0  0  0  0
  8 12  1  0  0  0  0
  8 13  1  0  0  0  0
  9 10  1  0  0  0  0
  9 29  1  0  0  0  0
  9 30  1  0  0  0  0
 10 14  1  0  0  0  0
 10 17  1  0  0  0  0
 11 21  1  0  0  0  0
 11 25  2  0  0  0  0
 12 31  1  0  0  0  0
 12 32  1  0  0  0  0
 12 33  1  0  0  0  0
 13 34  1  0  0  0  0
 13 35  1  0  0  0  0
 13 36  1  0  0  0  0
 14 15  1  0  0  0  0
 14 19  2  0  0  0  0
 15 16  1  0  0  0  0
 15 20  1  0  0  0  0
 16 17  2  0  0  0  0
 16 18  1  0  0  0  0
 18 37  1  0  0  0  0
 18 38  1  0  0  0  0
 20 39  1  0  0  0  0
 20 40  1  0  0  0  0
 20 41  1  0  0  0  0
 21 22  2  0  0  0  0
 21 42  1  0  0  0  0
 22 23  1  0  0  0  0
 23 24  2  0  0  0  0
 23 43  1  0  0  0  0
 24 25  1  0  0  0  0
 24 45  1  0  0  0  0
 25 44  1  0  0  0  0
 45 46  3  0  0  0  0
 46 47  1  0  0  0  0
 47 48  1  0  0  0  0
 47 49  1  0  0  0  0
 47 50  1  0  0  0  0
M  END
>  <PARENT_CMPD_ID>
23537249_36

>  <STANDARD_TYPE>
IC50

>  <RELATION>
=

>  <STANDARD_VALUE>
0.0099999998

>  <STANDARD_UNITS>
uM

>  <COMPOUND_KEY>
36

>  <PUBMED_ID>
23537249

>  <JOURNAL>
J.Med.Chem.

>  <YEAR>
2013

>  <VOLUME>
56

>  <FIRST_PAGE>
3379

>  <Company>
Array

>  <idx>
415

>  <Model>
Valid

>  <target>
8

>  <des_pred_mlr>
7.2369499

>  <RF_Canvas>
7.2200041

>  <DNN_Canvas>
7.702538

>  <pred_CoMFA>
6.5749998

>  <pred_COMSIA>
6.3754001

>  <pred_abm5>
6.4522753

>  <pred_ff8>
5.290133

>  <pred_gau6>
6.7848921

>  <CID>
BACE_415

>  <active>
1

>  <des_class_bayes>
0

>  <maacs_class_bayes>
1

>  <radial_class_bayes>
1

>  <dend_class_bayes>
1

>  <molprint_class_bayes>
1

>  <RF_canvas>
1

>  <DNN_canvas>
1

$$$$
23981898_17e
  MOE2015           3D

 78 80  0  0  1  0  0  0  0  0999 V2000
   28.6310    9.0440   21.0060 F   0  0  0  0  0  0  0  0  0  0  0  0
   29.2800   10.2130   20.8610 C   0  0  0  0  0  0  0  0  0  0  0  0
   30.0790   10.3560   21.9340 F   0  0  0  0  0  0  0  0  0  0  0  0
   30.0730   10.1130   19.7820 F   0  0  0  0  0  0  0  0  0  0  0  0
   28.3050   11.3680   20.7480 C   0  0  3  0  0  0  0  0  0  0  0  0
   27.5260   11.1960   19.5500 O   0  0  0  0  0  0  0  0  0  0  0  0
   26.1650   11.2280   19.7200 C   0  0  0  0  0  0  0  0  0  0  0  0
   25.4370   12.0360   18.8420 C   0  0  0  0  0  0  0  0  0  0  0  0
   24.0500   12.0560   18.9750 C   0  0  0  0  0  0  0  0  0  0  0  0
   23.3930   11.3120   19.9470 C   0  0  0  0  0  0  0  0  0  0  0  0
   24.1180   10.5060   20.8220 C   0  0  0  0  0  0  0  0  0  0  0  0
   25.5070   10.4450   20.6760 C   0  0  0  0  0  0  0  0  0  0  0  0
   23.4340    9.7800   21.9570 C   0  0  0  0  0  0  0  0  0  0  0  0
   22.8660   10.7430   23.0170 C   0  0  3  0  0  0  0  0  0  0  0  0
   22.1750   10.0100   24.1900 C   0  0  3  0  0  0  0  0  0  0  0  0
   21.5230   10.9910   25.1940 C   0  0  3  0  0  0  0  0  0  0  0  0
   22.5150   11.9710   25.8010 C   0  0  0  0  0  0  0  0  0  0  0  0
   23.2560   13.0210   24.5330 S   0  0  0  0  0  0  0  0  0  0  0  0
   23.9600   11.6640   23.5630 C   0  0  0  0  0  0  0  0  0  0  0  0
   22.1470   13.6160   23.7210 O   0  0  0  0  0  0  0  0  0  0  0  0
   20.8980   10.1520   26.2970 N   0  3  0  0  0  0  0  0  0  0  0  0
   19.8910   10.8340   27.1860 C   0  0  3  0  0  0  0  0  0  0  0  0
   20.4510   11.6070   27.7250 H   0  0  0  0  0  0  0  0  0  0  0  0
   18.7370   11.4590   26.4420 C   0  0  0  0  0  0  0  0  0  0  0  0
   17.8190   10.6840   25.7230 C   0  0  0  0  0  0  0  0  0  0  0  0
   16.7460   11.2510   25.0210 C   0  0  0  0  0  0  0  0  0  0  0  0
   16.6340   12.6420   25.0470 C   0  0  0  0  0  0  0  0  0  0  0  0
   17.5400   13.4280   25.7490 C   0  0  0  0  0  0  0  0  0  0  0  0
   18.5830   12.8430   26.4460 C   0  0  0  0  0  0  0  0  0  0  0  0
   15.7670   10.3580   24.2550 C   0  0  0  0  0  0  0  0  0  0  0  0
   15.2100    9.2630   25.1760 C   0  0  0  0  0  0  0  0  0  0  0  0
   14.5570   11.1100   23.6810 C   0  0  0  0  0  0  0  0  0  0  0  0
   16.5010    9.7020   23.0790 C   0  0  0  0  0  0  0  0  0  0  0  0
   21.1490    9.1230   23.7340 O   0  0  0  0  0  0  0  0  0  0  0  0
   23.3230   12.8250   18.1560 F   0  0  0  0  0  0  0  0  0  0  0  0
   26.0770   12.7990   17.8770 N   0  0  0  0  0  0  0  0  0  0  0  0
   29.0860   12.6770   20.6430 C   0  0  0  0  0  0  0  0  0  0  0  0
   28.1650   13.7680   20.6190 O   0  0  0  0  0  0  0  0  0  0  0  0
   28.8150   15.0170   20.7850 C   0  0  0  0  0  0  0  0  0  0  0  0
   27.6790   11.4150   21.6470 H   0  0  0  0  0  0  0  0  0  0  0  0
   22.3120   11.3880   20.0180 H   0  0  0  0  0  0  0  0  0  0  0  0
   26.0840    9.7870   21.3210 H   0  0  0  0  0  0  0  0  0  0  0  0
   24.1340    9.0800   22.4310 H   0  0  0  0  0  0  0  0  0  0  0  0
   22.6310    9.1630   21.5330 H   0  0  0  0  0  0  0  0  0  0  0  0
   22.0980   11.3450   22.5120 H   0  0  0  0  0  0  0  0  0  0  0  0
   22.9120    9.3870   24.7130 H   0  0  0  0  0  0  0  0  0  0  0  0
   20.6980   11.5060   24.6890 H   0  0  0  0  0  0  0  0  0  0  0  0
   23.3200   11.4540   26.3330 H   0  0  0  0  0  0  0  0  0  0  0  0
   22.0260   12.6450   26.5100 H   0  0  0  0  0  0  0  0  0  0  0  0
   24.5200   12.1610   22.7670 H   0  0  0  0  0  0  0  0  0  0  0  0
   24.6790   11.1200   24.1850 H   0  0  0  0  0  0  0  0  0  0  0  0
   21.6240    9.6990   26.8690 H   0  0  0  0  0  0  0  0  0  0  0  0
   20.4320    9.3730   25.7970 H   0  0  0  0  0  0  0  0  0  0  0  0
   19.4240    9.8150   28.2210 C   0  0  0  0  0  0  0  0  0  0  0  0
   18.6990   10.2630   28.9110 H   0  0  0  0  0  0  0  0  0  0  0  0
   20.2680    9.4530   28.8180 H   0  0  0  0  0  0  0  0  0  0  0  0
   18.9490    8.9420   27.7600 H   0  0  0  0  0  0  0  0  0  0  0  0
   17.9430    9.6030   25.7060 H   0  0  0  0  0  0  0  0  0  0  0  0
   15.8370   13.1570   24.5180 H   0  0  0  0  0  0  0  0  0  0  0  0
   17.4270   14.5100   25.7490 H   0  0  0  0  0  0  0  0  0  0  0  0
   19.2730   13.4870   26.9860 H   0  0  0  0  0  0  0  0  0  0  0  0
   14.7280    9.6960   26.0600 H   0  0  0  0  0  0  0  0  0  0  0  0
   15.9840    8.5730   25.5290 H   0  0  0  0  0  0  0  0  0  0  0  0
   14.4620    8.6500   24.6580 H   0  0  0  0  0  0  0  0  0  0  0  0
   13.9840   11.6150   24.4670 H   0  0  0  0  0  0  0  0  0  0  0  0
   13.8690   10.4260   23.1690 H   0  0  0  0  0  0  0  0  0  0  0  0
   14.8570   11.8630   22.9420 H   0  0  0  0  0  0  0  0  0  0  0  0
   17.3300    9.0670   23.4110 H   0  0  0  0  0  0  0  0  0  0  0  0
   16.9210   10.4560   22.4020 H   0  0  0  0  0  0  0  0  0  0  0  0
   15.8270    9.0680   22.4920 H   0  0  0  0  0  0  0  0  0  0  0  0
   20.6290    9.5630   23.0340 H   0  0  0  0  0  0  0  0  0  0  0  0
   25.5440   13.3630   17.2300 H   0  0  0  0  0  0  0  0  0  0  0  0
   27.0890   12.7820   17.8360 H   0  0  0  0  0  0  0  0  0  0  0  0
   29.6720   12.7080   19.7170 H   0  0  0  0  0  0  0  0  0  0  0  0
   29.7600   12.7850   21.5010 H   0  0  0  0  0  0  0  0  0  0  0  0
   28.0620   15.8080   20.7220 H   0  0  0  0  0  0  0  0  0  0  0  0
   29.5530   15.1740   19.9930 H   0  0  0  0  0  0  0  0  0  0  0  0
   29.2970   15.0720   21.7650 H   0  0  0  0  0  0  0  0  0  0  0  0
  1  2  1  0  0  0  0
  2  3  1  0  0  0  0
  2  4  1  0  0  0  0
  2  5  1  0  0  0  0
  5  6  1  0  0  0  0
  5 37  1  0  0  0  0
  5 40  1  0  0  0  0
  6  7  1  0  0  0  0
  7  8  1  0  0  0  0
  7 12  2  0  0  0  0
  8  9  2  0  0  0  0
  8 36  1  0  0  0  0
  9 10  1  0  0  0  0
  9 35  1  0  0  0  0
 10 11  2  0  0  0  0
 10 41  1  0  0  0  0
 11 12  1  0  0  0  0
 11 13  1  0  0  0  0
 12 42  1  0  0  0  0
 13 14  1  0  0  0  0
 13 43  1  0  0  0  0
 13 44  1  0  0  0  0
 14 15  1  0  0  0  0
 14 19  1  0  0  0  0
 14 45  1  0  0  0  0
 15 16  1  0  0  0  0
 15 34  1  0  0  0  0
 15 46  1  0  0  0  0
 16 17  1  0  0  0  0
 16 21  1  0  0  0  0
 16 47  1  0  0  0  0
 17 18  1  0  0  0  0
 17 48  1  0  0  0  0
 17 49  1  0  0  0  0
 18 19  1  0  0  0  0
 18 20  2  0  0  0  0
 19 50  1  0  0  0  0
 19 51  1  0  0  0  0
 21 22  1  0  0  0  0
 21 52  1  0  0  0  0
 21 53  1  0  0  0  0
 22 23  1  0  0  0  0
 22 24  1  0  0  0  0
 22 54  1  0  0  0  0
 24 25  1  0  0  0  0
 24 29  2  0  0  0  0
 25 26  2  0  0  0  0
 25 58  1  0  0  0  0
 26 27  1  0  0  0  0
 26 30  1  0  0  0  0
 27 28  2  0  0  0  0
 27 59  1  0  0  0  0
 28 29  1  0  0  0  0
 28 60  1  0  0  0  0
 29 61  1  0  0  0  0
 30 31  1  0  0  0  0
 30 32  1  0  0  0  0
 30 33  1  0  0  0  0
 31 62  1  0  0  0  0
 31 63  1  0  0  0  0
 31 64  1  0  0  0  0
 32 65  1  0  0  0  0
 32 66  1  0  0  0  0
 32 67  1  0  0  0  0
 33 68  1  0  0  0  0
 33 69  1  0  0  0  0
 33 70  1  0  0  0  0
 34 71  1  0  0  0  0
 36 72  1  0  0  0  0
 36 73  1  0  0  0  0
 37 38  1  0  0  0  0
 37 74  1  0  0  0  0
 37 75  1  0  0  0  0
 38 39  1  0  0  0  0
 39 76  1  0  0  0  0
 39 77  1  0  0  0  0
 39 78  1  0  0  0  0
 54 55  1  0  0  0  0
 54 56  1  0  0  0  0
 54 57  1  0  0  0  0
M  CHG  1  21   1
M  END
>  <PARENT_CMPD_ID>
23981898_17e

>  <STANDARD_TYPE>
IC50

>  <RELATION>
=

>  <STANDARD_VALUE>
0.0099999998

>  <STANDARD_UNITS>
uM

>  <COMPOUND_KEY>
17e

>  <PUBMED_ID>
23981898

>  <JOURNAL>
Bioorg.Med.Chem.Lett.

>  <YEAR>
2013

>  <VOLUME>
23

>  <FIRST_PAGE>
5300

>  <Company>
Novartis

>  <idx>
416

>  <Model>
Valid

>  <target>
8

>  <des_pred_mlr>
7.4740901

>  <RF_Canvas>
8.1137266

>  <DNN_Canvas>
8.2371464

>  <pred_CoMFA>
8.7072001

>  <pred_COMSIA>
7.7258

>  <pred_abm5>
8.0847044

>  <pred_ff8>
7.8620582

>  <pred_gau6>
8.1556873

>  <CID>
BACE_416

>  <active>
1

>  <des_class_bayes>
1

>  <maacs_class_bayes>
1

>  <radial_class_bayes>
1

>  <dend_class_bayes>
1

>  <molprint_class_bayes>
1

>  <RF_canvas>
1

>  <DNN_canvas>
1

$$$$
23981898_17g
  MOE2015           3D

 75 77  0  0  1  0  0  0  0  0999 V2000
   28.6310    9.0450   21.0100 F   0  0  0  0  0  0  0  0  0  0  0  0
   29.2810   10.2140   20.8630 C   0  0  0  0  0  0  0  0  0  0  0  0
   30.0810   10.3570   21.9350 F   0  0  0  0  0  0  0  0  0  0  0  0
   30.0720   10.1130   19.7830 F   0  0  0  0  0  0  0  0  0  0  0  0
   28.3060   11.3690   20.7500 C   0  0  3  0  0  0  0  0  0  0  0  0
   27.5260   11.1970   19.5540 O   0  0  0  0  0  0  0  0  0  0  0  0
   26.1650   11.2290   19.7250 C   0  0  0  0  0  0  0  0  0  0  0  0
   25.4360   12.0350   18.8460 C   0  0  0  0  0  0  0  0  0  0  0  0
   24.0490   12.0550   18.9800 C   0  0  0  0  0  0  0  0  0  0  0  0
   23.3940   11.3130   19.9550 C   0  0  0  0  0  0  0  0  0  0  0  0
   24.1190   10.5090   20.8320 C   0  0  0  0  0  0  0  0  0  0  0  0
   25.5080   10.4480   20.6840 C   0  0  0  0  0  0  0  0  0  0  0  0
   23.4370    9.7810   21.9650 C   0  0  0  0  0  0  0  0  0  0  0  0
   22.8610   10.7400   23.0260 C   0  0  3  0  0  0  0  0  0  0  0  0
   22.1650   10.0020   24.1920 C   0  0  3  0  0  0  0  0  0  0  0  0
   21.4990   10.9750   25.1940 C   0  0  3  0  0  0  0  0  0  0  0  0
   22.4780   11.9580   25.8150 C   0  0  0  0  0  0  0  0  0  0  0  0
   23.2330   13.0110   24.5550 S   0  0  0  0  0  0  0  0  0  0  0  0
   23.9490   11.6600   23.5850 C   0  0  0  0  0  0  0  0  0  0  0  0
   22.1340   13.6090   23.7330 O   0  0  0  0  0  0  0  0  0  0  0  0
   20.8640   10.1220   26.2800 N   0  3  0  0  0  0  0  0  0  0  0  0
   19.8240   10.7680   27.1430 C   0  0  0  0  0  0  0  0  0  0  0  0
   18.6750   11.3790   26.4040 C   0  0  0  0  0  0  0  0  0  0  0  0
   17.7570   10.6010   25.7010 C   0  0  0  0  0  0  0  0  0  0  0  0
   16.6890   11.1760   24.9910 C   0  0  0  0  0  0  0  0  0  0  0  0
   16.5780   12.5700   25.0020 C   0  0  0  0  0  0  0  0  0  0  0  0
   17.4830   13.3560   25.6970 C   0  0  0  0  0  0  0  0  0  0  0  0
   18.5120   12.7530   26.3880 C   0  0  0  0  0  0  0  0  0  0  0  0
   15.7110   10.2870   24.2230 C   0  0  0  0  0  0  0  0  0  0  0  0
   15.1500    9.1940   25.1430 C   0  0  0  0  0  0  0  0  0  0  0  0
   14.5040   11.0430   23.6450 C   0  0  0  0  0  0  0  0  0  0  0  0
   16.4510    9.6350   23.0490 C   0  0  0  0  0  0  0  0  0  0  0  0
   21.1430    9.1130   23.7320 O   0  0  0  0  0  0  0  0  0  0  0  0
   23.3210   12.8220   18.1620 F   0  0  0  0  0  0  0  0  0  0  0  0
   26.0760   12.7970   17.8800 N   0  0  0  0  0  0  0  0  0  0  0  0
   29.0870   12.6780   20.6440 C   0  0  0  0  0  0  0  0  0  0  0  0
   28.1650   13.7680   20.6200 O   0  0  0  0  0  0  0  0  0  0  0  0
   28.8140   15.0180   20.7860 C   0  0  0  0  0  0  0  0  0  0  0  0
   27.6820   11.4160   21.6500 H   0  0  0  0  0  0  0  0  0  0  0  0
   22.3120   11.3880   20.0260 H   0  0  0  0  0  0  0  0  0  0  0  0
   26.0860    9.7910   21.3290 H   0  0  0  0  0  0  0  0  0  0  0  0
   24.1390    9.0840   22.4410 H   0  0  0  0  0  0  0  0  0  0  0  0
   22.6380    9.1600   21.5400 H   0  0  0  0  0  0  0  0  0  0  0  0
   22.0950   11.3430   22.5180 H   0  0  0  0  0  0  0  0  0  0  0  0
   22.9020    9.3810   24.7180 H   0  0  0  0  0  0  0  0  0  0  0  0
   20.6780   11.4890   24.6830 H   0  0  0  0  0  0  0  0  0  0  0  0
   23.2800   11.4420   26.3560 H   0  0  0  0  0  0  0  0  0  0  0  0
   21.9760   12.6250   26.5210 H   0  0  0  0  0  0  0  0  0  0  0  0
   24.5150   12.1600   22.7950 H   0  0  0  0  0  0  0  0  0  0  0  0
   24.6640   11.1150   24.2100 H   0  0  0  0  0  0  0  0  0  0  0  0
   21.5800    9.6820   26.8740 H   0  0  0  0  0  0  0  0  0  0  0  0
   20.4290    9.3350   25.7660 H   0  0  0  0  0  0  0  0  0  0  0  0
   20.3460   11.4920   27.7770 H   0  0  0  0  0  0  0  0  0  0  0  0
   19.4530    9.9780   27.8070 H   0  0  0  0  0  0  0  0  0  0  0  0
   17.8750    9.5190   25.7020 H   0  0  0  0  0  0  0  0  0  0  0  0
   15.7840   13.0830   24.4670 H   0  0  0  0  0  0  0  0  0  0  0  0
   17.3900   14.4380   25.6980 H   0  0  0  0  0  0  0  0  0  0  0  0
   19.3830   13.5230   27.0400 F   0  0  0  0  0  0  0  0  0  0  0  0
   14.6690    9.6280   26.0280 H   0  0  0  0  0  0  0  0  0  0  0  0
   15.9200    8.5000   25.4950 H   0  0  0  0  0  0  0  0  0  0  0  0
   14.3990    8.5850   24.6250 H   0  0  0  0  0  0  0  0  0  0  0  0
   13.9310   11.5510   24.4300 H   0  0  0  0  0  0  0  0  0  0  0  0
   13.8140   10.3600   23.1340 H   0  0  0  0  0  0  0  0  0  0  0  0
   14.8060   11.7930   22.9050 H   0  0  0  0  0  0  0  0  0  0  0  0
   17.2790    8.9990   23.3830 H   0  0  0  0  0  0  0  0  0  0  0  0
   16.8730   10.3890   22.3740 H   0  0  0  0  0  0  0  0  0  0  0  0
   15.7790    9.0010   22.4580 H   0  0  0  0  0  0  0  0  0  0  0  0
   20.6430    9.5420   23.0100 H   0  0  0  0  0  0  0  0  0  0  0  0
   25.5420   13.3600   17.2320 H   0  0  0  0  0  0  0  0  0  0  0  0
   27.0880   12.7800   17.8390 H   0  0  0  0  0  0  0  0  0  0  0  0
   29.6720   12.7080   19.7170 H   0  0  0  0  0  0  0  0  0  0  0  0
   29.7620   12.7860   21.5010 H   0  0  0  0  0  0  0  0  0  0  0  0
   28.0620   15.8090   20.7230 H   0  0  0  0  0  0  0  0  0  0  0  0
   29.5540   15.1750   19.9940 H   0  0  0  0  0  0  0  0  0  0  0  0
   29.2960   15.0730   21.7670 H   0  0  0  0  0  0  0  0  0  0  0  0
  1  2  1  0  0  0  0
  2  3  1  0  0  0  0
  2  4  1  0  0  0  0
  2  5  1  0  0  0  0
  5  6  1  0  0  0  0
  5 36  1  0  0  0  0
  5 39  1  0  0  0  0
  6  7  1  0  0  0  0
  7  8  1  0  0  0  0
  7 12  2  0  0  0  0
  8  9  2  0  0  0  0
  8 35  1  0  0  0  0
  9 10  1  0  0  0  0
  9 34  1  0  0  0  0
 10 11  2  0  0  0  0
 10 40  1  0  0  0  0
 11 12  1  0  0  0  0
 11 13  1  0  0  0  0
 12 41  1  0  0  0  0
 13 14  1  0  0  0  0
 13 42  1  0  0  0  0
 13 43  1  0  0  0  0
 14 15  1  0  0  0  0
 14 19  1  0  0  0  0
 14 44  1  0  0  0  0
 15 16  1  0  0  0  0
 15 33  1  0  0  0  0
 15 45  1  0  0  0  0
 16 17  1  0  0  0  0
 16 21  1  0  0  0  0
 16 46  1  0  0  0  0
 17 18  1  0  0  0  0
 17 47  1  0  0  0  0
 17 48  1  0  0  0  0
 18 19  1  0  0  0  0
 18 20  2  0  0  0  0
 19 49  1  0  0  0  0
 19 50  1  0  0  0  0
 21 22  1  0  0  0  0
 21 51  1  0  0  0  0
 21 52  1  0  0  0  0
 22 23  1  0  0  0  0
 22 53  1  0  0  0  0
 22 54  1  0  0  0  0
 23 24  1  0  0  0  0
 23 28  2  0  0  0  0
 24 25  2  0  0  0  0
 24 55  1  0  0  0  0
 25 26  1  0  0  0  0
 25 29  1  0  0  0  0
 26 27  2  0  0  0  0
 26 56  1  0  0  0  0
 27 28  1  0  0  0  0
 27 57  1  0  0  0  0
 28 58  1  0  0  0  0
 29 30  1  0  0  0  0
 29 31  1  0  0  0  0
 29 32  1  0  0  0  0
 30 59  1  0  0  0  0
 30 60  1  0  0  0  0
 30 61  1  0  0  0  0
 31 62  1  0  0  0  0
 31 63  1  0  0  0  0
 31 64  1  0  0  0  0
 32 65  1  0  0  0  0
 32 66  1  0  0  0  0
 32 67  1  0  0  0  0
 33 68  1  0  0  0  0
 35 69  1  0  0  0  0
 35 70  1  0  0  0  0
 36 37  1  0  0  0  0
 36 71  1  0  0  0  0
 36 72  1  0  0  0  0
 37 38  1  0  0  0  0
 38 73  1  0  0  0  0
 38 74  1  0  0  0  0
 38 75  1  0  0  0  0
M  CHG  1  21   1
M  END
>  <PARENT_CMPD_ID>
23981898_17g

>  <STANDARD_TYPE>
IC50

>  <RELATION>
=

>  <STANDARD_VALUE>
0.0099999998

>  <STANDARD_UNITS>
uM

>  <COMPOUND_KEY>
17g

>  <PUBMED_ID>
23981898

>  <JOURNAL>
Bioorg.Med.Chem.Lett.

>  <YEAR>
2013

>  <VOLUME>
23

>  <FIRST_PAGE>
5300

>  <Company>
Novartis

>  <idx>
417

>  <Model>
Valid

>  <target>
8

>  <des_pred_mlr>
7.3297601

>  <RF_Canvas>
8.0011005

>  <DNN_Canvas>
8.0907173

>  <pred_CoMFA>
8.4688997

>  <pred_COMSIA>
7.4171

>  <pred_abm5>
7.8858714

>  <pred_ff8>
8.0414228

>  <pred_gau6>
8.023056

>  <CID>
BACE_417

>  <active>
1

>  <des_class_bayes>
1

>  <maacs_class_bayes>
1

>  <radial_class_bayes>
1

>  <dend_class_bayes>
1

>  <molprint_class_bayes>
1

>  <RF_canvas>
1

>  <DNN_canvas>
1

$$$$
mcl886_26
  MOE2015           3D

 77 80  0  0  1  0  0  0  0  0999 V2000
   18.6550   12.1880   29.4830 C   0  0  0  0  0  0  0  0  0  0  0  0
   19.6180   12.6690   30.5650 C   0  0  0  0  0  0  0  0  0  0  0  0
   20.2620   13.5830   29.5270 C   0  0  0  0  0  0  0  0  0  0  0  0
   19.6480   12.7030   28.4150 C   0  0  0  0  0  0  0  0  0  0  0  0
   20.6250   11.7010   27.8250 C   0  0  0  0  0  0  0  0  0  0  0  0
   19.0620   13.4700   27.3510 O   0  0  0  0  0  0  0  0  0  0  0  0
   18.4380   12.7550   26.3650 C   0  0  0  0  0  0  0  0  0  0  0  0
   17.4960   13.4400   25.7000 N   0  0  0  0  0  0  0  0  0  0  0  0
   16.8560   12.7890   24.7160 C   0  0  0  0  0  0  0  0  0  0  0  0
   17.0880   11.4640   24.3780 C   0  0  0  0  0  0  0  0  0  0  0  0
   16.2990   10.8010   23.2910 C   0  0  0  0  0  0  0  0  0  0  0  0
   14.9770   10.1330   23.7190 C   0  0  0  0  0  0  0  0  0  0  0  0
   14.0470   11.1100   24.4390 C   0  0  0  0  0  0  0  0  0  0  0  0
   15.2330    8.9270   24.6230 C   0  0  0  0  0  0  0  0  0  0  0  0
   14.2670    9.6450   22.4530 C   0  0  0  0  0  0  0  0  0  0  0  0
   18.0720   10.7870   25.0910 C   0  0  0  0  0  0  0  0  0  0  0  0
   18.7910   11.4410   26.0910 C   0  0  0  0  0  0  0  0  0  0  0  0
   19.8790   10.7640   26.8700 C   0  0  3  0  0  0  0  0  0  0  0  0
   20.8930   10.0410   26.0180 N   0  3  0  0  0  0  0  0  0  0  0  0
   21.6100   10.8620   24.9830 C   0  0  0  0  0  0  0  0  0  0  0  0
   22.0990    9.9180   23.8900 C   0  0  3  0  0  0  0  0  0  0  0  0
   20.9940    9.1110   23.4680 O   0  0  0  0  0  0  0  0  0  0  0  0
   22.7010   10.6940   22.7100 C   0  0  3  0  0  0  0  0  0  0  0  0
   23.8610   11.4730   23.1320 N   0  0  0  0  0  0  0  0  0  0  0  0
   23.7820   12.8300   23.3410 C   0  0  0  0  0  0  0  0  0  0  0  0
   25.0820   13.4620   23.7410 C   0  0  0  0  0  0  0  0  0  0  0  0
   22.7370   13.4620   23.2420 O   0  0  0  0  0  0  0  0  0  0  0  0
   23.0590    9.7610   21.5400 C   0  0  0  0  0  0  0  0  0  0  0  0
   23.6980   10.5120   20.4090 C   0  0  0  0  0  0  0  0  0  0  0  0
   25.0230   10.2620   20.0760 C   0  0  0  0  0  0  0  0  0  0  0  0
   25.6460   11.0120   19.0870 C   0  0  0  0  0  0  0  0  0  0  0  0
   27.0690   10.8030   18.7220 C   0  0  0  0  0  0  0  0  0  0  0  0
   27.6170    9.7130   19.3270 F   0  0  0  0  0  0  0  0  0  0  0  0
   27.8540   11.8550   19.0740 F   0  0  0  0  0  0  0  0  0  0  0  0
   27.2530   10.6170   17.3880 F   0  0  0  0  0  0  0  0  0  0  0  0
   24.9400   12.0050   18.4400 C   0  0  0  0  0  0  0  0  0  0  0  0
   25.5490   12.7350   17.5040 F   0  0  0  0  0  0  0  0  0  0  0  0
   23.6200   12.2570   18.7440 C   0  0  0  0  0  0  0  0  0  0  0  0
   22.9970   11.5040   19.7240 C   0  0  0  0  0  0  0  0  0  0  0  0
   17.6940   12.7170   29.4880 H   0  0  0  0  0  0  0  0  0  0  0  0
   18.4550   11.1130   29.4900 H   0  0  0  0  0  0  0  0  0  0  0  0
   20.2880   11.8840   30.9360 H   0  0  0  0  0  0  0  0  0  0  0  0
   19.1590   13.1710   31.4200 H   0  0  0  0  0  0  0  0  0  0  0  0
   21.3550   13.6310   29.5670 H   0  0  0  0  0  0  0  0  0  0  0  0
   19.8740   14.6090   29.5470 H   0  0  0  0  0  0  0  0  0  0  0  0
   21.1290   11.1130   28.6020 H   0  0  0  0  0  0  0  0  0  0  0  0
   21.4120   12.2570   27.3010 H   0  0  0  0  0  0  0  0  0  0  0  0
   16.1080   13.3820   24.1960 H   0  0  0  0  0  0  0  0  0  0  0  0
   16.9420   10.0630   22.7920 H   0  0  0  0  0  0  0  0  0  0  0  0
   16.0940   11.5540   22.5160 H   0  0  0  0  0  0  0  0  0  0  0  0
   14.4440   11.4160   25.4130 H   0  0  0  0  0  0  0  0  0  0  0  0
   13.0680   10.6550   24.6290 H   0  0  0  0  0  0  0  0  0  0  0  0
   13.8770   12.0130   23.8420 H   0  0  0  0  0  0  0  0  0  0  0  0
   15.6610    9.2210   25.5870 H   0  0  0  0  0  0  0  0  0  0  0  0
   15.9210    8.2150   24.1530 H   0  0  0  0  0  0  0  0  0  0  0  0
   14.3020    8.3890   24.8390 H   0  0  0  0  0  0  0  0  0  0  0  0
   14.0370   10.4770   21.7770 H   0  0  0  0  0  0  0  0  0  0  0  0
   13.3200    9.1450   22.6900 H   0  0  0  0  0  0  0  0  0  0  0  0
   14.8860    8.9290   21.8990 H   0  0  0  0  0  0  0  0  0  0  0  0
   18.2660    9.7430   24.8560 H   0  0  0  0  0  0  0  0  0  0  0  0
   19.4040    9.9740   27.4670 H   0  0  0  0  0  0  0  0  0  0  0  0
   20.4220    9.2850   25.4890 H   0  0  0  0  0  0  0  0  0  0  0  0
   21.5750    9.5550   26.6160 H   0  0  0  0  0  0  0  0  0  0  0  0
   22.4290   11.3810   25.4880 H   0  0  0  0  0  0  0  0  0  0  0  0
   20.8990   11.5840   24.5730 H   0  0  0  0  0  0  0  0  0  0  0  0
   22.8480    9.2350   24.3110 H   0  0  0  0  0  0  0  0  0  0  0  0
   20.5090    9.5710   22.7550 H   0  0  0  0  0  0  0  0  0  0  0  0
   21.9310   11.3870   22.3460 H   0  0  0  0  0  0  0  0  0  0  0  0
   24.7550   11.0050   23.2580 H   0  0  0  0  0  0  0  0  0  0  0  0
   25.9190   12.9960   23.2130 H   0  0  0  0  0  0  0  0  0  0  0  0
   25.2230   13.3460   24.8180 H   0  0  0  0  0  0  0  0  0  0  0  0
   25.0630   14.5260   23.4880 H   0  0  0  0  0  0  0  0  0  0  0  0
   22.1650    9.2530   21.1570 H   0  0  0  0  0  0  0  0  0  0  0  0
   23.7320    8.9700   21.8950 H   0  0  0  0  0  0  0  0  0  0  0  0
   25.5830    9.4880   20.5990 H   0  0  0  0  0  0  0  0  0  0  0  0
   23.0830   13.0410   18.2190 H   0  0  0  0  0  0  0  0  0  0  0  0
   21.9560   11.7150   19.9620 H   0  0  0  0  0  0  0  0  0  0  0  0
  1  2  1  0  0  0  0
  1  4  1  0  0  0  0
  1 40  1  0  0  0  0
  1 41  1  0  0  0  0
  2  3  1  0  0  0  0
  2 42  1  0  0  0  0
  2 43  1  0  0  0  0
  3  4  1  0  0  0  0
  3 44  1  0  0  0  0
  3 45  1  0  0  0  0
  4  5  1  0  0  0  0
  4  6  1  0  0  0  0
  5 18  1  0  0  0  0
  5 46  1  0  0  0  0
  5 47  1  0  0  0  0
  6  7  1  0  0  0  0
  7  8  1  0  0  0  0
  7 17  2  0  0  0  0
  8  9  2  0  0  0  0
  9 10  1  0  0  0  0
  9 48  1  0  0  0  0
 10 11  1  0  0  0  0
 10 16  2  0  0  0  0
 11 12  1  0  0  0  0
 11 49  1  0  0  0  0
 11 50  1  0  0  0  0
 12 13  1  0  0  0  0
 12 14  1  0  0  0  0
 12 15  1  0  0  0  0
 13 51  1  0  0  0  0
 13 52  1  0  0  0  0
 13 53  1  0  0  0  0
 14 54  1  0  0  0  0
 14 55  1  0  0  0  0
 14 56  1  0  0  0  0
 15 57  1  0  0  0  0
 15 58  1  0  0  0  0
 15 59  1  0  0  0  0
 16 17  1  0  0  0  0
 16 60  1  0  0  0  0
 17 18  1  0  0  0  0
 18 19  1  0  0  0  0
 18 61  1  0  0  0  0
 19 20  1  0  0  0  0
 19 62  1  0  0  0  0
 19 63  1  0  0  0  0
 20 21  1  0  0  0  0
 20 64  1  0  0  0  0
 20 65  1  0  0  0  0
 21 22  1  0  0  0  0
 21 23  1  0  0  0  0
 21 66  1  0  0  0  0
 22 67  1  0  0  0  0
 23 24  1  0  0  0  0
 23 28  1  0  0  0  0
 23 68  1  0  0  0  0
 24 25  1  0  0  0  0
 24 69  1  0  0  0  0
 25 26  1  0  0  0  0
 25 27  2  0  0  0  0
 26 70  1  0  0  0  0
 26 71  1  0  0  0  0
 26 72  1  0  0  0  0
 28 29  1  0  0  0  0
 28 73  1  0  0  0  0
 28 74  1  0  0  0  0
 29 30  1  0  0  0  0
 29 39  2  0  0  0  0
 30 31  2  0  0  0  0
 30 75  1  0  0  0  0
 31 32  1  0  0  0  0
 31 36  1  0  0  0  0
 32 33  1  0  0  0  0
 32 34  1  0  0  0  0
 32 35  1  0  0  0  0
 36 37  1  0  0  0  0
 36 38  2  0  0  0  0
 38 39  1  0  0  0  0
 38 76  1  0  0  0  0
 39 77  1  0  0  0  0
M  CHG  1  19   1
M  END
>  <PARENT_CMPD_ID>
mcl886_26

>  <STANDARD_TYPE>
IC50

>  <RELATION>
=

>  <STANDARD_VALUE>
11

>  <STANDARD_UNITS>
nM

>  <COMPOUND_KEY>
26

>  <PUBMED_ID>
24900403

>  <JOURNAL>
ACS Med. Chem. Lett.

>  <YEAR>
2012

>  <VOLUME>
3

>  <FIRST_PAGE>
886

>  <Company>
Amgen

>  <idx>
418

>  <Model>
Valid

>  <target>
7.9586072

>  <des_pred_mlr>
7.22191

>  <RF_Canvas>
7.9412584

>  <DNN_Canvas>
8.1145897

>  <pred_CoMFA>
8.2003002

>  <pred_COMSIA>
7.4584999

>  <pred_abm5>
8.0467539

>  <pred_ff8>
6.7461171

>  <pred_gau6>
8.0722151

>  <CID>
BACE_418

>  <active>
1

>  <des_class_bayes>
0

>  <maacs_class_bayes>
1

>  <radial_class_bayes>
0

>  <dend_class_bayes>
1

>  <molprint_class_bayes>
1

>  <RF_canvas>
1

>  <DNN_canvas>
1

$$$$
CHEMBL539653
  MOE2015           3D

 77 80  0  0  1  0  0  0  0  0999 V2000
   15.6230    9.2280   24.6360 C   0  0  0  0  0  0  0  0  0  0  0  0
   16.0580   10.4350   24.0220 O   0  0  0  0  0  0  0  0  0  0  0  0
   16.8320   11.2200   24.8290 C   0  0  0  0  0  0  0  0  0  0  0  0
   16.5870   12.5860   24.8040 C   0  0  0  0  0  0  0  0  0  0  0  0
   17.3670   13.4480   25.5630 C   0  0  0  0  0  0  0  0  0  0  0  0
   18.4210   12.9510   26.3220 C   0  0  0  0  0  0  0  0  0  0  0  0
   18.7020   11.5840   26.3330 C   0  0  0  0  0  0  0  0  0  0  0  0
   19.8960   11.0500   27.0790 C   0  0  0  0  0  0  0  0  0  0  0  0
   20.8350   10.2920   26.1980 N   0  3  0  0  0  0  0  0  0  0  0  0
   21.4650   11.1160   25.1100 C   0  0  0  0  0  0  0  0  0  0  0  0
   22.2930   10.1850   24.2190 C   0  0  2  0  0  0  0  0  0  0  0  0
   23.4030    9.7080   24.9820 O   0  0  0  0  0  0  0  0  0  0  0  0
   22.7950   10.9730   22.9920 C   0  0  3  0  0  0  0  0  0  0  0  0
   23.3450   10.0560   21.8840 C   0  0  0  0  0  0  0  0  0  0  0  0
   23.8830   10.8140   20.7000 C   0  0  0  0  0  0  0  0  0  0  0  0
   23.0970   11.7410   20.0120 C   0  0  0  0  0  0  0  0  0  0  0  0
   23.6330   12.4620   18.9570 C   0  0  0  0  0  0  0  0  0  0  0  0
   22.8740   13.3610   18.3290 F   0  0  0  0  0  0  0  0  0  0  0  0
   24.9350   12.2700   18.5480 C   0  0  0  0  0  0  0  0  0  0  0  0
   25.7030   11.3390   19.2140 C   0  0  0  0  0  0  0  0  0  0  0  0
   26.9710   11.1490   18.8450 F   0  0  0  0  0  0  0  0  0  0  0  0
   25.1960   10.6120   20.2780 C   0  0  0  0  0  0  0  0  0  0  0  0
   23.8120   11.9320   23.4070 N   0  0  0  0  0  0  0  0  0  0  0  0
   23.5500   13.2790   23.5320 C   0  0  0  0  0  0  0  0  0  0  0  0
   22.4190   13.7380   23.4530 O   0  0  0  0  0  0  0  0  0  0  0  0
   24.7380   14.1280   23.7720 C   0  0  0  0  0  0  0  0  0  0  0  0
   24.6590   15.2510   24.5900 C   0  0  0  0  0  0  0  0  0  0  0  0
   25.7930   16.0320   24.7990 C   0  0  0  0  0  0  0  0  0  0  0  0
   26.9950   15.6990   24.1740 C   0  0  0  0  0  0  0  0  0  0  0  0
   27.0560   14.6010   23.3220 C   0  0  0  0  0  0  0  0  0  0  0  0
   25.9300   13.8180   23.1270 C   0  0  0  0  0  0  0  0  0  0  0  0
   28.1920   14.3060   22.5090 N   0  0  0  0  0  0  0  0  0  0  0  0
   28.2970   14.9920   21.2670 C   0  0  0  0  0  0  0  0  0  0  0  0
   28.7760   16.2970   21.1960 C   0  0  0  0  0  0  0  0  0  0  0  0
   28.8980   16.9210   19.9680 C   0  0  0  0  0  0  0  0  0  0  0  0
   28.5440   16.2380   18.8150 C   0  0  0  0  0  0  0  0  0  0  0  0
   28.0660   14.9350   18.8890 C   0  0  0  0  0  0  0  0  0  0  0  0
   27.9380   14.3120   20.1180 C   0  0  0  0  0  0  0  0  0  0  0  0
   29.6180   13.7640   23.2050 S   0  0  0  0  0  0  0  0  0  0  0  0
   29.3410   13.1780   24.4970 O   0  0  0  0  0  0  0  0  0  0  0  0
   30.6650   14.7510   23.0760 O   0  0  0  0  0  0  0  0  0  0  0  0
   29.9870   12.4160   22.0870 C   0  0  0  0  0  0  0  0  0  0  0  0
   17.8830   10.7220   25.5950 C   0  0  0  0  0  0  0  0  0  0  0  0
   16.4070    8.4660   24.5870 H   0  0  0  0  0  0  0  0  0  0  0  0
   14.7630    8.8560   24.0700 H   0  0  0  0  0  0  0  0  0  0  0  0
   15.2990    9.3860   25.6710 H   0  0  0  0  0  0  0  0  0  0  0  0
   15.7780   12.9810   24.1930 H   0  0  0  0  0  0  0  0  0  0  0  0
   17.1630   14.5160   25.5490 H   0  0  0  0  0  0  0  0  0  0  0  0
   19.0320   13.6520   26.8880 H   0  0  0  0  0  0  0  0  0  0  0  0
   19.5700   10.3550   27.8600 H   0  0  0  0  0  0  0  0  0  0  0  0
   20.4790   11.8490   27.5520 H   0  0  0  0  0  0  0  0  0  0  0  0
   20.3570    9.4780   25.7970 H   0  0  0  0  0  0  0  0  0  0  0  0
   21.6150    9.9090   26.7540 H   0  0  0  0  0  0  0  0  0  0  0  0
   20.6620   11.5900   24.5390 H   0  0  0  0  0  0  0  0  0  0  0  0
   22.0770   11.8670   25.6190 H   0  0  0  0  0  0  0  0  0  0  0  0
   21.6890    9.3270   23.9030 H   0  0  0  0  0  0  0  0  0  0  0  0
   23.9350    9.1040   24.4330 H   0  0  0  0  0  0  0  0  0  0  0  0
   21.9420   11.5210   22.5740 H   0  0  0  0  0  0  0  0  0  0  0  0
   24.1380    9.4180   22.2940 H   0  0  0  0  0  0  0  0  0  0  0  0
   22.5550    9.3790   21.5340 H   0  0  0  0  0  0  0  0  0  0  0  0
   22.0650   11.9280   20.2930 H   0  0  0  0  0  0  0  0  0  0  0  0
   25.3430   12.8380   17.7200 H   0  0  0  0  0  0  0  0  0  0  0  0
   25.8440    9.8940   20.7730 H   0  0  0  0  0  0  0  0  0  0  0  0
   24.7360   11.5760   23.6260 H   0  0  0  0  0  0  0  0  0  0  0  0
   23.7220   15.5160   25.0720 H   0  0  0  0  0  0  0  0  0  0  0  0
   25.7420   16.9060   25.4440 H   0  0  0  0  0  0  0  0  0  0  0  0
   27.8690   16.3260   24.3280 H   0  0  0  0  0  0  0  0  0  0  0  0
   25.9820   12.9930   22.4220 H   0  0  0  0  0  0  0  0  0  0  0  0
   29.0750   16.8280   22.0950 H   0  0  0  0  0  0  0  0  0  0  0  0
   29.2730   17.9380   19.9080 H   0  0  0  0  0  0  0  0  0  0  0  0
   28.6400   16.7240   17.8470 H   0  0  0  0  0  0  0  0  0  0  0  0
   27.7960   14.4060   17.9790 H   0  0  0  0  0  0  0  0  0  0  0  0
   27.5760   13.2920   20.1700 H   0  0  0  0  0  0  0  0  0  0  0  0
   29.1270   11.7460   22.0400 H   0  0  0  0  0  0  0  0  0  0  0  0
   30.8480   11.8790   22.4940 H   0  0  0  0  0  0  0  0  0  0  0  0
   30.2420   12.8120   21.1040 H   0  0  0  0  0  0  0  0  0  0  0  0
   18.0820    9.6550   25.5910 H   0  0  0  0  0  0  0  0  0  0  0  0
  1  2  1  0  0  0  0
  1 44  1  0  0  0  0
  1 45  1  0  0  0  0
  1 46  1  0  0  0  0
  2  3  1  0  0  0  0
  3  4  1  0  0  0  0
  3 43  2  0  0  0  0
  4  5  2  0  0  0  0
  4 47  1  0  0  0  0
  5  6  1  0  0  0  0
  5 48  1  0  0  0  0
  6  7  2  0  0  0  0
  6 49  1  0  0  0  0
  7  8  1  0  0  0  0
  7 43  1  0  0  0  0
  8  9  1  0  0  0  0
  8 50  1  0  0  0  0
  8 51  1  0  0  0  0
  9 10  1  0  0  0  0
  9 52  1  0  0  0  0
  9 53  1  0  0  0  0
 10 11  1  0  0  0  0
 10 54  1  0  0  0  0
 10 55  1  0  0  0  0
 11 12  1  0  0  0  0
 11 13  1  0  0  0  0
 11 56  1  0  0  0  0
 12 57  1  0  0  0  0
 13 14  1  0  0  0  0
 13 23  1  0  0  0  0
 13 58  1  0  0  0  0
 14 15  1  0  0  0  0
 14 59  1  0  0  0  0
 14 60  1  0  0  0  0
 15 16  2  0  0  0  0
 15 22  1  0  0  0  0
 16 17  1  0  0  0  0
 16 61  1  0  0  0  0
 17 18  1  0  0  0  0
 17 19  2  0  0  0  0
 19 20  1  0  0  0  0
 19 62  1  0  0  0  0
 20 21  1  0  0  0  0
 20 22  2  0  0  0  0
 22 63  1  0  0  0  0
 23 24  1  0  0  0  0
 23 64  1  0  0  0  0
 24 25  2  0  0  0  0
 24 26  1  0  0  0  0
 26 27  1  0  0  0  0
 26 31  2  0  0  0  0
 27 28  2  0  0  0  0
 27 65  1  0  0  0  0
 28 29  1  0  0  0  0
 28 66  1  0  0  0  0
 29 30  2  0  0  0  0
 29 67  1  0  0  0  0
 30 31  1  0  0  0  0
 30 32  1  0  0  0  0
 31 68  1  0  0  0  0
 32 33  1  0  0  0  0
 32 39  1  0  0  0  0
 33 34  1  0  0  0  0
 33 38  2  0  0  0  0
 34 35  2  0  0  0  0
 34 69  1  0  0  0  0
 35 36  1  0  0  0  0
 35 70  1  0  0  0  0
 36 37  2  0  0  0  0
 36 71  1  0  0  0  0
 37 38  1  0  0  0  0
 37 72  1  0  0  0  0
 38 73  1  0  0  0  0
 39 40  2  0  0  0  0
 39 41  2  0  0  0  0
 39 42  1  0  0  0  0
 42 74  1  0  0  0  0
 42 75  1  0  0  0  0
 42 76  1  0  0  0  0
 43 77  1  0  0  0  0
M  CHG  1   9   1
M  END
>  <PARENT_CMPD_ID>
CHEMBL539653

>  <STANDARD_TYPE>
IC50

>  <RELATION>
=

>  <STANDARD_VALUE>
11

>  <STANDARD_UNITS>
nM

>  <COMPOUND_KEY>
6a

>  <PUBMED_ID>
19375914

>  <JOURNAL>
Bioorg. Med. Chem. Lett.

>  <YEAR>
2009

>  <VOLUME>
19

>  <FIRST_PAGE>
2654

>  <Company>
BMS

>  <idx>
419

>  <Model>
Valid

>  <target>
7.9586072

>  <des_pred_mlr>
7.5581899

>  <RF_Canvas>
7.8501611

>  <DNN_Canvas>
7.559031

>  <pred_CoMFA>
6.7543001

>  <pred_COMSIA>
7.0713

>  <pred_abm5>
6.4100385

>  <pred_ff8>
6.6472325

>  <pred_gau6>
6.4651599

>  <CID>
BACE_419

>  <active>
1

>  <des_class_bayes>
1

>  <maacs_class_bayes>
1

>  <radial_class_bayes>
1

>  <dend_class_bayes>
1

>  <molprint_class_bayes>
1

>  <RF_canvas>
1

>  <DNN_canvas>
1

$$$$
CHEMBL555436
  MOE2015           3D

 94 97  0  0  1  0  0  0  0  0999 V2000
   28.0070   16.3190   19.0250 C   0  0  0  0  0  0  0  0  0  0  0  0
   27.8260   15.0800   19.8750 C   0  0  0  0  0  0  0  0  0  0  0  0
   28.8220   15.0930   21.0060 C   0  0  0  0  0  0  0  0  0  0  0  0
   28.6810   13.9840   21.9250 N   0  0  0  0  0  0  0  0  0  0  0  0
   28.8810   12.6220   21.4860 C   0  0  0  0  0  0  0  0  0  0  0  0
   30.3280   12.2940   21.2190 C   0  0  0  0  0  0  0  0  0  0  0  0
   30.4690   10.8200   20.9120 C   0  0  0  0  0  0  0  0  0  0  0  0
   28.4740   14.2210   23.2660 C   0  0  0  0  0  0  0  0  0  0  0  0
   29.3470   14.0630   24.1070 O   0  0  0  0  0  0  0  0  0  0  0  0
   27.1080   14.6370   23.6340 C   0  0  0  0  0  0  0  0  0  0  0  0
   26.0430   13.7900   23.3270 C   0  0  0  0  0  0  0  0  0  0  0  0
   24.7540   14.1230   23.7330 C   0  0  0  0  0  0  0  0  0  0  0  0
   24.5280   15.3240   24.3860 C   0  0  0  0  0  0  0  0  0  0  0  0
   25.5970   16.1710   24.6580 C   0  0  0  0  0  0  0  0  0  0  0  0
   26.8990   15.8270   24.3160 C   0  0  0  0  0  0  0  0  0  0  0  0
   25.2500   17.7290   25.4150 S   0  0  0  0  0  0  0  0  0  0  0  0
   25.5120   18.7180   24.3870 O   0  0  0  0  0  0  0  0  0  0  0  0
   23.9340   17.6020   26.0130 O   0  0  0  0  0  0  0  0  0  0  0  0
   26.4010   17.9410   26.7270 C   0  0  0  0  0  0  0  0  0  0  0  0
   27.3410   18.9710   26.6720 C   0  0  0  0  0  0  0  0  0  0  0  0
   28.2690   19.1030   27.7030 C   0  0  0  0  0  0  0  0  0  0  0  0
   28.2510   18.2140   28.7790 C   0  0  0  0  0  0  0  0  0  0  0  0
   27.3000   17.1930   28.8320 C   0  0  0  0  0  0  0  0  0  0  0  0
   26.3670   17.0540   27.8050 C   0  0  0  0  0  0  0  0  0  0  0  0
   23.5900   13.2480   23.4660 C   0  0  0  0  0  0  0  0  0  0  0  0
   22.4530   13.6960   23.3860 O   0  0  0  0  0  0  0  0  0  0  0  0
   23.8560   11.9060   23.3600 N   0  0  0  0  0  0  0  0  0  0  0  0
   22.8330   10.9490   22.9600 C   0  0  3  0  0  0  0  0  0  0  0  0
   23.3760   10.0200   21.8610 C   0  0  0  0  0  0  0  0  0  0  0  0
   23.9150   10.7850   20.6790 C   0  0  0  0  0  0  0  0  0  0  0  0
   23.1290   11.7150   19.9970 C   0  0  0  0  0  0  0  0  0  0  0  0
   23.6670   12.4550   18.9560 C   0  0  0  0  0  0  0  0  0  0  0  0
   22.9050   13.3560   18.3350 F   0  0  0  0  0  0  0  0  0  0  0  0
   24.9740   12.2790   18.5550 C   0  0  0  0  0  0  0  0  0  0  0  0
   25.7430   11.3420   19.2130 C   0  0  0  0  0  0  0  0  0  0  0  0
   27.0100   11.1570   18.8430 F   0  0  0  0  0  0  0  0  0  0  0  0
   25.2320   10.5960   20.2630 C   0  0  0  0  0  0  0  0  0  0  0  0
   22.3360   10.2010   24.2060 C   0  0  3  0  0  0  0  0  0  0  0  0
   23.4390    9.6920   24.9570 O   0  0  0  0  0  0  0  0  0  0  0  0
   21.5370   11.1370   25.1150 C   0  0  0  0  0  0  0  0  0  0  0  0
   20.8840   10.3080   26.1820 N   0  3  0  0  0  0  0  0  0  0  0  0
   19.9440   11.0530   27.0740 C   0  0  0  0  0  0  0  0  0  0  0  0
   18.7520   11.6000   26.3370 C   0  0  0  0  0  0  0  0  0  0  0  0
   18.4760   12.9650   26.3330 C   0  0  0  0  0  0  0  0  0  0  0  0
   17.4000   13.4620   25.6070 C   0  0  0  0  0  0  0  0  0  0  0  0
   16.5930   12.6060   24.8650 C   0  0  0  0  0  0  0  0  0  0  0  0
   16.8490   11.2400   24.8590 C   0  0  0  0  0  0  0  0  0  0  0  0
   16.1590   10.2850   24.1700 O   0  0  0  0  0  0  0  0  0  0  0  0
   15.0830   10.7340   23.3640 C   0  0  0  0  0  0  0  0  0  0  0  0
   17.9140   10.7470   25.6120 C   0  0  0  0  0  0  0  0  0  0  0  0
   27.2910   16.3160   18.1970 H   0  0  0  0  0  0  0  0  0  0  0  0
   29.0140   16.3640   18.5990 H   0  0  0  0  0  0  0  0  0  0  0  0
   27.8390   17.2290   19.6090 H   0  0  0  0  0  0  0  0  0  0  0  0
   27.9580   14.1940   19.2440 H   0  0  0  0  0  0  0  0  0  0  0  0
   26.8020   15.0450   20.2650 H   0  0  0  0  0  0  0  0  0  0  0  0
   28.7280   16.0270   21.5740 H   0  0  0  0  0  0  0  0  0  0  0  0
   29.8460   15.0720   20.6170 H   0  0  0  0  0  0  0  0  0  0  0  0
   28.5020   11.9530   22.2690 H   0  0  0  0  0  0  0  0  0  0  0  0
   28.2680   12.4440   20.5990 H   0  0  0  0  0  0  0  0  0  0  0  0
   30.7090   12.8800   20.3750 H   0  0  0  0  0  0  0  0  0  0  0  0
   30.9470   12.5480   22.0870 H   0  0  0  0  0  0  0  0  0  0  0  0
   29.8790   10.5390   20.0340 H   0  0  0  0  0  0  0  0  0  0  0  0
   30.1410   10.2040   21.7570 H   0  0  0  0  0  0  0  0  0  0  0  0
   31.5160   10.5740   20.7060 H   0  0  0  0  0  0  0  0  0  0  0  0
   26.2330   12.8780   22.7690 H   0  0  0  0  0  0  0  0  0  0  0  0
   23.5120   15.6030   24.6640 H   0  0  0  0  0  0  0  0  0  0  0  0
   27.7380   16.4820   24.5370 H   0  0  0  0  0  0  0  0  0  0  0  0
   27.3650   19.6680   25.8370 H   0  0  0  0  0  0  0  0  0  0  0  0
   29.0090   19.9000   27.6710 H   0  0  0  0  0  0  0  0  0  0  0  0
   28.9780   18.3190   29.5810 H   0  0  0  0  0  0  0  0  0  0  0  0
   27.2880   16.5070   29.6750 H   0  0  0  0  0  0  0  0  0  0  0  0
   25.6270   16.2600   27.8600 H   0  0  0  0  0  0  0  0  0  0  0  0
   24.7740   11.5410   23.5830 H   0  0  0  0  0  0  0  0  0  0  0  0
   21.9790   11.4940   22.5410 H   0  0  0  0  0  0  0  0  0  0  0  0
   24.1660    9.3820   22.2750 H   0  0  0  0  0  0  0  0  0  0  0  0
   22.5830    9.3470   21.5120 H   0  0  0  0  0  0  0  0  0  0  0  0
   22.0940   11.8950   20.2740 H   0  0  0  0  0  0  0  0  0  0  0  0
   25.3860   12.8590   17.7370 H   0  0  0  0  0  0  0  0  0  0  0  0
   25.8810    9.8720   20.7490 H   0  0  0  0  0  0  0  0  0  0  0  0
   21.7060    9.3560   23.9030 H   0  0  0  0  0  0  0  0  0  0  0  0
   23.8070    8.9190   24.4880 H   0  0  0  0  0  0  0  0  0  0  0  0
   20.7470   11.6450   24.5550 H   0  0  0  0  0  0  0  0  0  0  0  0
   22.1700   11.8600   25.6380 H   0  0  0  0  0  0  0  0  0  0  0  0
   20.3770    9.5260   25.7520 H   0  0  0  0  0  0  0  0  0  0  0  0
   21.6340    9.8710   26.7380 H   0  0  0  0  0  0  0  0  0  0  0  0
   19.6160   10.3460   27.8440 H   0  0  0  0  0  0  0  0  0  0  0  0
   20.5270   11.8420   27.5600 H   0  0  0  0  0  0  0  0  0  0  0  0
   19.1010   13.6650   26.8850 H   0  0  0  0  0  0  0  0  0  0  0  0
   17.1890   14.5300   25.6080 H   0  0  0  0  0  0  0  0  0  0  0  0
   15.7720   13.0380   24.3020 H   0  0  0  0  0  0  0  0  0  0  0  0
   15.4310   11.4140   22.5790 H   0  0  0  0  0  0  0  0  0  0  0  0
   14.3010   11.2000   23.9720 H   0  0  0  0  0  0  0  0  0  0  0  0
   14.6440    9.8590   22.8740 H   0  0  0  0  0  0  0  0  0  0  0  0
   18.0790    9.6720   25.6120 H   0  0  0  0  0  0  0  0  0  0  0  0
  1  2  1  0  0  0  0
  1 51  1  0  0  0  0
  1 52  1  0  0  0  0
  1 53  1  0  0  0  0
  2  3  1  0  0  0  0
  2 54  1  0  0  0  0
  2 55  1  0  0  0  0
  3  4  1  0  0  0  0
  3 56  1  0  0  0  0
  3 57  1  0  0  0  0
  4  5  1  0  0  0  0
  4  8  1  0  0  0  0
  5  6  1  0  0  0  0
  5 58  1  0  0  0  0
  5 59  1  0  0  0  0
  6  7  1  0  0  0  0
  6 60  1  0  0  0  0
  6 61  1  0  0  0  0
  7 62  1  0  0  0  0
  7 63  1  0  0  0  0
  7 64  1  0  0  0  0
  8  9  2  0  0  0  0
  8 10  1  0  0  0  0
 10 11  1  0  0  0  0
 10 15  2  0  0  0  0
 11 12  2  0  0  0  0
 11 65  1  0  0  0  0
 12 13  1  0  0  0  0
 12 25  1  0  0  0  0
 13 14  2  0  0  0  0
 13 66  1  0  0  0  0
 14 15  1  0  0  0  0
 14 16  1  0  0  0  0
 15 67  1  0  0  0  0
 16 17  2  0  0  0  0
 16 18  2  0  0  0  0
 16 19  1  0  0  0  0
 19 20  1  0  0  0  0
 19 24  2  0  0  0  0
 20 21  2  0  0  0  0
 20 68  1  0  0  0  0
 21 22  1  0  0  0  0
 21 69  1  0  0  0  0
 22 23  2  0  0  0  0
 22 70  1  0  0  0  0
 23 24  1  0  0  0  0
 23 71  1  0  0  0  0
 24 72  1  0  0  0  0
 25 26  2  0  0  0  0
 25 27  1  0  0  0  0
 27 28  1  0  0  0  0
 27 73  1  0  0  0  0
 28 29  1  0  0  0  0
 28 38  1  0  0  0  0
 28 74  1  0  0  0  0
 29 30  1  0  0  0  0
 29 75  1  0  0  0  0
 29 76  1  0  0  0  0
 30 31  1  0  0  0  0
 30 37  2  0  0  0  0
 31 32  2  0  0  0  0
 31 77  1  0  0  0  0
 32 33  1  0  0  0  0
 32 34  1  0  0  0  0
 34 35  2  0  0  0  0
 34 78  1  0  0  0  0
 35 36  1  0  0  0  0
 35 37  1  0  0  0  0
 37 79  1  0  0  0  0
 38 39  1  0  0  0  0
 38 40  1  0  0  0  0
 38 80  1  0  0  0  0
 39 81  1  0  0  0  0
 40 41  1  0  0  0  0
 40 82  1  0  0  0  0
 40 83  1  0  0  0  0
 41 42  1  0  0  0  0
 41 84  1  0  0  0  0
 41 85  1  0  0  0  0
 42 43  1  0  0  0  0
 42 86  1  0  0  0  0
 42 87  1  0  0  0  0
 43 44  1  0  0  0  0
 43 50  2  0  0  0  0
 44 45  2  0  0  0  0
 44 88  1  0  0  0  0
 45 46  1  0  0  0  0
 45 89  1  0  0  0  0
 46 47  2  0  0  0  0
 46 90  1  0  0  0  0
 47 48  1  0  0  0  0
 47 50  1  0  0  0  0
 48 49  1  0  0  0  0
 49 91  1  0  0  0  0
 49 92  1  0  0  0  0
 49 93  1  0  0  0  0
 50 94  1  0  0  0  0
M  CHG  1  41   1
M  END
>  <PARENT_CMPD_ID>
CHEMBL555436

>  <STANDARD_TYPE>
IC50

>  <RELATION>
=

>  <STANDARD_VALUE>
11

>  <STANDARD_UNITS>
nM

>  <COMPOUND_KEY>
7g

>  <PUBMED_ID>
19375914

>  <JOURNAL>
Bioorg. Med. Chem. Lett.

>  <YEAR>
2009

>  <VOLUME>
19

>  <FIRST_PAGE>
2654

>  <Company>
BMS

>  <idx>
420

>  <Model>
Valid

>  <target>
7.9586072

>  <des_pred_mlr>
8.1583099

>  <RF_Canvas>
7.6452956

>  <DNN_Canvas>
7.8962111

>  <pred_CoMFA>
7.098

>  <pred_COMSIA>
8.6651001

>  <pred_abm5>
7.1306653

>  <pred_ff8>
6.0549474

>  <pred_gau6>
7.2244506

>  <CID>
BACE_420

>  <active>
1

>  <des_class_bayes>
1

>  <maacs_class_bayes>
0

>  <radial_class_bayes>
1

>  <dend_class_bayes>
0

>  <molprint_class_bayes>
1

>  <RF_canvas>
1

>  <DNN_canvas>
1

$$$$
CHEMBL554281
  MOE2015           3D

 69 72  0  0  1  0  0  0  0  0999 V2000
   29.6350   11.0660   21.5940 C   0  0  0  0  0  0  0  0  0  0  0  0
   29.3370   12.4410   21.0420 C   0  0  0  0  0  0  0  0  0  0  0  0
   29.1190   13.4280   22.0790 N   0  0  0  0  0  0  0  0  0  0  0  0
   30.0690   14.3140   22.5010 C   0  0  0  0  0  0  0  0  0  0  0  0
   29.5000   15.1410   23.4360 C   0  0  0  0  0  0  0  0  0  0  0  0
   30.0900   16.3300   24.0980 C   0  0  0  0  0  0  0  0  0  0  0  0
   30.1780   16.2580   25.6060 C   0  0  0  0  0  0  0  0  0  0  0  0
   28.6640   15.8950   26.4930 S   0  0  0  0  0  0  0  0  0  0  0  0
   28.5380   16.8610   27.5650 O   0  0  0  0  0  0  0  0  0  0  0  0
   28.6660   14.4820   26.8060 O   0  0  0  0  0  0  0  0  0  0  0  0
   27.4200   16.2130   25.3750 N   0  0  0  0  0  0  0  0  0  0  0  0
   26.3280   17.0830   25.8210 C   0  0  0  0  0  0  0  0  0  0  0  0
   27.1340   15.1520   24.4530 C   0  0  0  0  0  0  0  0  0  0  0  0
   25.8950   14.5110   24.4090 C   0  0  0  0  0  0  0  0  0  0  0  0
   25.6890   13.4470   23.5410 C   0  0  0  0  0  0  0  0  0  0  0  0
   26.7070   12.9960   22.6930 C   0  0  0  0  0  0  0  0  0  0  0  0
   27.9470   13.6310   22.7620 C   0  0  0  0  0  0  0  0  0  0  0  0
   28.1670   14.6960   23.6200 C   0  0  0  0  0  0  0  0  0  0  0  0
   24.3460   12.8160   23.4880 C   0  0  0  0  0  0  0  0  0  0  0  0
   23.3150   13.4680   23.6000 O   0  0  0  0  0  0  0  0  0  0  0  0
   24.3420   11.4600   23.2510 N   0  0  0  0  0  0  0  0  0  0  0  0
   23.1270   10.7280   22.9140 C   0  0  3  0  0  0  0  0  0  0  0  0
   23.4170    9.7640   21.7410 C   0  0  0  0  0  0  0  0  0  0  0  0
   24.2600   10.3860   20.6540 C   0  0  0  0  0  0  0  0  0  0  0  0
   25.4790    9.8090   20.2980 C   0  0  0  0  0  0  0  0  0  0  0  0
   26.2950   10.4110   19.3480 C   0  0  0  0  0  0  0  0  0  0  0  0
   25.9020   11.5940   18.7430 C   0  0  0  0  0  0  0  0  0  0  0  0
   24.6870   12.1690   19.0790 C   0  0  0  0  0  0  0  0  0  0  0  0
   23.8650   11.5640   20.0210 C   0  0  0  0  0  0  0  0  0  0  0  0
   22.5490    9.9980   24.1440 C   0  0  2  0  0  0  0  0  0  0  0  0
   21.4120    9.1950   23.8010 O   0  0  0  0  0  0  0  0  0  0  0  0
   22.0930   10.9830   25.2260 C   0  0  0  0  0  0  0  0  0  0  0  0
   21.2550   10.2200   26.2140 N   0  3  0  0  0  0  0  0  0  0  0  0
   20.3750   11.0430   27.0840 C   0  0  0  0  0  0  0  0  0  0  0  0
   19.2730   11.6350   26.3250 C   0  0  0  0  0  0  0  0  0  0  0  0
   18.3700   12.1520   25.7270 C   0  0  0  0  0  0  0  0  0  0  0  0
   29.8080   10.3580   20.7770 H   0  0  0  0  0  0  0  0  0  0  0  0
   28.8040   10.6870   22.1990 H   0  0  0  0  0  0  0  0  0  0  0  0
   30.5280   11.0790   22.2270 H   0  0  0  0  0  0  0  0  0  0  0  0
   28.4480   12.4240   20.4040 H   0  0  0  0  0  0  0  0  0  0  0  0
   30.1700   12.7850   20.4190 H   0  0  0  0  0  0  0  0  0  0  0  0
   31.0640   14.3150   22.0730 H   0  0  0  0  0  0  0  0  0  0  0  0
   29.5040   17.2130   23.8110 H   0  0  0  0  0  0  0  0  0  0  0  0
   31.0980   16.5050   23.7010 H   0  0  0  0  0  0  0  0  0  0  0  0
   30.5410   17.2190   25.9890 H   0  0  0  0  0  0  0  0  0  0  0  0
   30.8980   15.4890   25.9090 H   0  0  0  0  0  0  0  0  0  0  0  0
   25.6480   17.3120   24.9930 H   0  0  0  0  0  0  0  0  0  0  0  0
   26.7230   18.0440   26.1670 H   0  0  0  0  0  0  0  0  0  0  0  0
   25.7560   16.6150   26.6290 H   0  0  0  0  0  0  0  0  0  0  0  0
   25.0850   14.8310   25.0580 H   0  0  0  0  0  0  0  0  0  0  0  0
   26.5400   12.1970   21.9790 H   0  0  0  0  0  0  0  0  0  0  0  0
   25.2170   10.9470   23.2880 H   0  0  0  0  0  0  0  0  0  0  0  0
   22.3770   11.4470   22.5600 H   0  0  0  0  0  0  0  0  0  0  0  0
   23.9320    8.8760   22.1310 H   0  0  0  0  0  0  0  0  0  0  0  0
   22.4790    9.4060   21.3000 H   0  0  0  0  0  0  0  0  0  0  0  0
   25.8140    8.8870   20.7660 H   0  0  0  0  0  0  0  0  0  0  0  0
   27.2450    9.9550   19.0820 H   0  0  0  0  0  0  0  0  0  0  0  0
   26.5400   12.0650   18.0000 H   0  0  0  0  0  0  0  0  0  0  0  0
   24.3700   13.0910   18.5960 H   0  0  0  0  0  0  0  0  0  0  0  0
   22.9150   12.0340   20.2650 H   0  0  0  0  0  0  0  0  0  0  0  0
   23.2990    9.3200   24.5680 H   0  0  0  0  0  0  0  0  0  0  0  0
   20.9120    9.6240   23.0800 H   0  0  0  0  0  0  0  0  0  0  0  0
   21.4530   11.7570   24.7930 H   0  0  0  0  0  0  0  0  0  0  0  0
   22.9230   11.4390   25.7730 H   0  0  0  0  0  0  0  0  0  0  0  0
   20.6910    9.5650   25.6430 H   0  0  0  0  0  0  0  0  0  0  0  0
   21.8580    9.6190   26.7880 H   0  0  0  0  0  0  0  0  0  0  0  0
   19.9920   10.3680   27.8560 H   0  0  0  0  0  0  0  0  0  0  0  0
   21.0030   11.8000   27.5630 H   0  0  0  0  0  0  0  0  0  0  0  0
   17.5670   12.6150   25.1990 H   0  0  0  0  0  0  0  0  0  0  0  0
  1  2  1  0  0  0  0
  1 37  1  0  0  0  0
  1 38  1  0  0  0  0
  1 39  1  0  0  0  0
  2  3  1  0  0  0  0
  2 40  1  0  0  0  0
  2 41  1  0  0  0  0
  3  4  1  0  0  0  0
  3 17  1  0  0  0  0
  4  5  2  0  0  0  0
  4 42  1  0  0  0  0
  5  6  1  0  0  0  0
  5 18  1  0  0  0  0
  6  7  1  0  0  0  0
  6 43  1  0  0  0  0
  6 44  1  0  0  0  0
  7  8  1  0  0  0  0
  7 45  1  0  0  0  0
  7 46  1  0  0  0  0
  8  9  2  0  0  0  0
  8 10  2  0  0  0  0
  8 11  1  0  0  0  0
 11 12  1  0  0  0  0
 11 13  1  0  0  0  0
 12 47  1  0  0  0  0
 12 48  1  0  0  0  0
 12 49  1  0  0  0  0
 13 14  1  0  0  0  0
 13 18  2  0  0  0  0
 14 15  2  0  0  0  0
 14 50  1  0  0  0  0
 15 16  1  0  0  0  0
 15 19  1  0  0  0  0
 16 17  2  0  0  0  0
 16 51  1  0  0  0  0
 17 18  1  0  0  0  0
 19 20  2  0  0  0  0
 19 21  1  0  0  0  0
 21 22  1  0  0  0  0
 21 52  1  0  0  0  0
 22 23  1  0  0  0  0
 22 30  1  0  0  0  0
 22 53  1  0  0  0  0
 23 24  1  0  0  0  0
 23 54  1  0  0  0  0
 23 55  1  0  0  0  0
 24 25  1  0  0  0  0
 24 29  2  0  0  0  0
 25 26  2  0  0  0  0
 25 56  1  0  0  0  0
 26 27  1  0  0  0  0
 26 57  1  0  0  0  0
 27 28  2  0  0  0  0
 27 58  1  0  0  0  0
 28 29  1  0  0  0  0
 28 59  1  0  0  0  0
 29 60  1  0  0  0  0
 30 31  1  0  0  0  0
 30 32  1  0  0  0  0
 30 61  1  0  0  0  0
 31 62  1  0  0  0  0
 32 33  1  0  0  0  0
 32 63  1  0  0  0  0
 32 64  1  0  0  0  0
 33 34  1  0  0  0  0
 33 65  1  0  0  0  0
 33 66  1  0  0  0  0
 34 35  1  0  0  0  0
 34 67  1  0  0  0  0
 34 68  1  0  0  0  0
 35 36  3  0  0  0  0
 36 69  1  0  0  0  0
M  CHG  1  33   1
M  END
>  <PARENT_CMPD_ID>
CHEMBL554281

>  <STANDARD_TYPE>
IC50

>  <RELATION>
=

>  <STANDARD_VALUE>
11

>  <STANDARD_UNITS>
nM

>  <COMPOUND_KEY>
11

>  <PUBMED_ID>
19406640

>  <JOURNAL>
Bioorg. Med. Chem. Lett.

>  <YEAR>
2009

>  <VOLUME>
19

>  <FIRST_PAGE>
3674

>  <Company>
GSK

>  <idx>
421

>  <Model>
Valid

>  <target>
7.9586072

>  <des_pred_mlr>
6.9005098

>  <RF_Canvas>
7.4317365

>  <DNN_Canvas>
6.838232

>  <pred_CoMFA>
6.7248001

>  <pred_COMSIA>
6.1391001

>  <pred_abm5>
6.6921258

>  <pred_ff8>
7.8423996

>  <pred_gau6>
6.5069923

>  <CID>
BACE_421

>  <active>
1

>  <des_class_bayes>
0

>  <maacs_class_bayes>
1

>  <radial_class_bayes>
1

>  <dend_class_bayes>
1

>  <molprint_class_bayes>
1

>  <RF_canvas>
1

>  <DNN_canvas>
1

$$$$
CHEMBL1210345
  MOE2015           3D

 90 93  0  0  1  0  0  0  0  0999 V2000
   20.9260   12.3020   27.6030 C   0  0  0  0  0  0  0  0  0  0  0  0
   20.2640   11.1570   26.8570 C   0  0  3  0  0  0  0  0  0  0  0  0
   21.2670   10.3660   26.1000 N   0  3  0  0  0  0  0  0  0  0  0  0
   21.8970   11.1270   25.0050 C   0  0  0  0  0  0  0  0  0  0  0  0
   22.4530   10.1390   23.9780 C   0  0  3  0  0  0  0  0  0  0  0  0
   21.3320    9.3440   23.5740 O   0  0  0  0  0  0  0  0  0  0  0  0
   23.1060   10.8440   22.7960 C   0  0  3  0  0  0  0  0  0  0  0  0
   23.4280    9.8950   21.6440 C   0  0  0  0  0  0  0  0  0  0  0  0
   24.3110   10.5370   20.6000 C   0  0  0  0  0  0  0  0  0  0  0  0
   23.9700   11.7390   19.9960 C   0  0  0  0  0  0  0  0  0  0  0  0
   24.8050   12.3030   19.0450 C   0  0  0  0  0  0  0  0  0  0  0  0
   25.9840   11.6730   18.6870 C   0  0  0  0  0  0  0  0  0  0  0  0
   26.3250   10.4770   19.2830 C   0  0  0  0  0  0  0  0  0  0  0  0
   25.4930    9.9130   20.2330 C   0  0  0  0  0  0  0  0  0  0  0  0
   24.3240   11.5430   23.2230 N   0  0  0  0  0  0  0  0  0  0  0  0
   24.3340   12.9010   23.3860 C   0  0  0  0  0  0  0  0  0  0  0  0
   23.3260   13.6080   23.3880 O   0  0  0  0  0  0  0  0  0  0  0  0
   25.6870   13.4610   23.5640 C   0  0  0  0  0  0  0  0  0  0  0  0
   26.7520   12.9530   22.8410 C   0  0  0  0  0  0  0  0  0  0  0  0
   28.0260   13.4740   23.0230 C   0  0  0  0  0  0  0  0  0  0  0  0
   28.2310   14.5110   23.9240 C   0  0  0  0  0  0  0  0  0  0  0  0
   27.1480   15.0100   24.6360 C   0  0  0  0  0  0  0  0  0  0  0  0
   25.8780   14.4890   24.4640 C   0  0  0  0  0  0  0  0  0  0  0  0
   27.2970   16.0860   25.5750 N   0  0  0  0  0  0  0  0  0  0  0  0
   26.4820   17.2510   25.3990 C   0  0  0  0  0  0  0  0  0  0  0  0
   26.6630   18.0220   24.2710 C   0  0  0  0  0  0  0  0  0  0  0  0
   25.8640   19.1370   24.1070 C   0  0  0  0  0  0  0  0  0  0  0  0
   24.9250   19.4590   25.0620 C   0  0  0  0  0  0  0  0  0  0  0  0
   24.7560   18.6790   26.1830 C   0  0  0  0  0  0  0  0  0  0  0  0
   24.0130   18.9430   26.9210 H   0  0  0  0  0  0  0  0  0  0  0  0
   25.5390   17.5590   26.3600 C   0  0  0  0  0  0  0  0  0  0  0  0
   25.4180   16.9340   27.2330 H   0  0  0  0  0  0  0  0  0  0  0  0
   28.6320   16.2090   26.6040 S   0  0  0  0  0  0  0  0  0  0  0  0
   29.7320   17.2750   25.7120 C   0  0  0  0  0  0  0  0  0  0  0  0
   29.2570   14.9140   26.6820 O   0  0  0  0  0  0  0  0  0  0  0  0
   28.2360   16.9430   27.7840 O   0  0  0  0  0  0  0  0  0  0  0  0
   19.1940   11.6850   25.9180 C   0  0  0  0  0  0  0  0  0  0  0  0
   19.1500   12.8440   25.5090 O   0  0  0  0  0  0  0  0  0  0  0  0
   18.2590   10.7320   25.5800 N   0  0  0  0  0  0  0  0  0  0  0  0
   17.1780   11.0790   24.6520 C   0  0  0  0  0  0  0  0  0  0  0  0
   16.9820    9.9360   23.6870 C   0  0  0  0  0  0  0  0  0  0  0  0
   15.8540   10.1920   22.6900 C   0  0  0  0  0  0  0  0  0  0  0  0
   14.5580   10.4610   23.4320 C   0  0  0  0  0  0  0  0  0  0  0  0
   14.7700   11.6410   24.3720 C   0  0  0  0  0  0  0  0  0  0  0  0
   15.8730   11.3210   25.3830 C   0  0  0  0  0  0  0  0  0  0  0  0
   21.6900   11.9060   28.2720 H   0  0  0  0  0  0  0  0  0  0  0  0
   20.1760   12.8380   28.1850 H   0  0  0  0  0  0  0  0  0  0  0  0
   21.3860   12.9840   26.8880 H   0  0  0  0  0  0  0  0  0  0  0  0
   19.7950   10.5010   27.5910 H   0  0  0  0  0  0  0  0  0  0  0  0
   20.8080    9.5570   25.7070 H   0  0  0  0  0  0  0  0  0  0  0  0
   21.9890   10.0660   26.7400 H   0  0  0  0  0  0  0  0  0  0  0  0
   22.7070   11.7380   25.4020 H   0  0  0  0  0  0  0  0  0  0  0  0
   21.1550   11.7700   24.5310 H   0  0  0  0  0  0  0  0  0  0  0  0
   23.2470    9.5260   24.4060 H   0  0  0  0  0  0  0  0  0  0  0  0
   20.6720    9.9370   23.2080 H   0  0  0  0  0  0  0  0  0  0  0  0
   22.3790   11.5660   22.4250 H   0  0  0  0  0  0  0  0  0  0  0  0
   22.4950    9.5870   21.1720 H   0  0  0  0  0  0  0  0  0  0  0  0
   23.9390    9.0190   22.0440 H   0  0  0  0  0  0  0  0  0  0  0  0
   23.0510   12.2360   20.2680 H   0  0  0  0  0  0  0  0  0  0  0  0
   24.5340   13.2400   18.5800 H   0  0  0  0  0  0  0  0  0  0  0  0
   26.6330   12.1150   17.9460 H   0  0  0  0  0  0  0  0  0  0  0  0
   27.2430    9.9800   19.0070 H   0  0  0  0  0  0  0  0  0  0  0  0
   25.7670    8.9760   20.6940 H   0  0  0  0  0  0  0  0  0  0  0  0
   25.1660   11.0140   23.3990 H   0  0  0  0  0  0  0  0  0  0  0  0
   26.5920   12.1510   22.1350 H   0  0  0  0  0  0  0  0  0  0  0  0
   28.8580   13.0730   22.4640 H   0  0  0  0  0  0  0  0  0  0  0  0
   29.2190   14.9230   24.0690 H   0  0  0  0  0  0  0  0  0  0  0  0
   25.0450   14.8830   25.0280 H   0  0  0  0  0  0  0  0  0  0  0  0
   27.4090   17.7620   23.5350 H   0  0  0  0  0  0  0  0  0  0  0  0
   25.9760   19.7570   23.2290 H   0  0  0  0  0  0  0  0  0  0  0  0
   24.1440   20.5790   24.8930 O   0  0  0  0  0  0  0  0  0  0  0  0
   23.2100   20.8210   25.9320 C   0  0  0  0  0  0  0  0  0  0  0  0
   22.6430   21.7250   25.7070 H   0  0  0  0  0  0  0  0  0  0  0  0
   23.7410   20.9510   26.8750 H   0  0  0  0  0  0  0  0  0  0  0  0
   22.5280   19.9750   26.0120 H   0  0  0  0  0  0  0  0  0  0  0  0
   30.0680   16.7730   24.8040 H   0  0  0  0  0  0  0  0  0  0  0  0
   30.5940   17.5120   26.3360 H   0  0  0  0  0  0  0  0  0  0  0  0
   29.2110   18.1950   25.4470 H   0  0  0  0  0  0  0  0  0  0  0  0
   18.3170    9.8010   25.9680 H   0  0  0  0  0  0  0  0  0  0  0  0
   17.4570   11.9950   24.1300 H   0  0  0  0  0  0  0  0  0  0  0  0
   16.7470    9.0360   24.2560 H   0  0  0  0  0  0  0  0  0  0  0  0
   17.9090    9.7840   23.1330 H   0  0  0  0  0  0  0  0  0  0  0  0
   15.7300    9.3170   22.0520 H   0  0  0  0  0  0  0  0  0  0  0  0
   16.1040   11.0570   22.0750 H   0  0  0  0  0  0  0  0  0  0  0  0
   14.2750    9.5800   24.0080 H   0  0  0  0  0  0  0  0  0  0  0  0
   13.7690   10.6980   22.7180 H   0  0  0  0  0  0  0  0  0  0  0  0
   13.8420   11.8480   24.9050 H   0  0  0  0  0  0  0  0  0  0  0  0
   15.0580   12.5170   23.7910 H   0  0  0  0  0  0  0  0  0  0  0  0
   15.9910   12.1600   26.0680 H   0  0  0  0  0  0  0  0  0  0  0  0
   15.6010   10.4280   25.9460 H   0  0  0  0  0  0  0  0  0  0  0  0
  1  2  1  0  0  0  0
  1 46  1  0  0  0  0
  1 47  1  0  0  0  0
  1 48  1  0  0  0  0
  2  3  1  0  0  0  0
  2 37  1  0  0  0  0
  2 49  1  0  0  0  0
  3  4  1  0  0  0  0
  3 50  1  0  0  0  0
  3 51  1  0  0  0  0
  4  5  1  0  0  0  0
  4 52  1  0  0  0  0
  4 53  1  0  0  0  0
  5  6  1  0  0  0  0
  5  7  1  0  0  0  0
  5 54  1  0  0  0  0
  6 55  1  0  0  0  0
  7  8  1  0  0  0  0
  7 15  1  0  0  0  0
  7 56  1  0  0  0  0
  8  9  1  0  0  0  0
  8 57  1  0  0  0  0
  8 58  1  0  0  0  0
  9 10  1  0  0  0  0
  9 14  2  0  0  0  0
 10 11  2  0  0  0  0
 10 59  1  0  0  0  0
 11 12  1  0  0  0  0
 11 60  1  0  0  0  0
 12 13  2  0  0  0  0
 12 61  1  0  0  0  0
 13 14  1  0  0  0  0
 13 62  1  0  0  0  0
 14 63  1  0  0  0  0
 15 16  1  0  0  0  0
 15 64  1  0  0  0  0
 16 17  2  0  0  0  0
 16 18  1  0  0  0  0
 18 19  1  0  0  0  0
 18 23  2  0  0  0  0
 19 20  2  0  0  0  0
 19 65  1  0  0  0  0
 20 21  1  0  0  0  0
 20 66  1  0  0  0  0
 21 22  2  0  0  0  0
 21 67  1  0  0  0  0
 22 23  1  0  0  0  0
 22 24  1  0  0  0  0
 23 68  1  0  0  0  0
 24 25  1  0  0  0  0
 24 33  1  0  0  0  0
 25 26  1  0  0  0  0
 25 31  2  0  0  0  0
 26 27  2  0  0  0  0
 26 69  1  0  0  0  0
 27 28  1  0  0  0  0
 27 70  1  0  0  0  0
 28 29  2  0  0  0  0
 28 71  1  0  0  0  0
 29 30  1  0  0  0  0
 29 31  1  0  0  0  0
 31 32  1  0  0  0  0
 33 34  1  0  0  0  0
 33 35  2  0  0  0  0
 33 36  2  0  0  0  0
 34 76  1  0  0  0  0
 34 77  1  0  0  0  0
 34 78  1  0  0  0  0
 37 38  2  0  0  0  0
 37 39  1  0  0  0  0
 39 40  1  0  0  0  0
 39 79  1  0  0  0  0
 40 41  1  0  0  0  0
 40 45  1  0  0  0  0
 40 80  1  0  0  0  0
 41 42  1  0  0  0  0
 41 81  1  0  0  0  0
 41 82  1  0  0  0  0
 42 43  1  0  0  0  0
 42 83  1  0  0  0  0
 42 84  1  0  0  0  0
 43 44  1  0  0  0  0
 43 85  1  0  0  0  0
 43 86  1  0  0  0  0
 44 45  1  0  0  0  0
 44 87  1  0  0  0  0
 44 88  1  0  0  0  0
 45 89  1  0  0  0  0
 45 90  1  0  0  0  0
 71 72  1  0  0  0  0
 72 73  1  0  0  0  0
 72 74  1  0  0  0  0
 72 75  1  0  0  0  0
M  CHG  1   3   1
M  END
>  <PARENT_CMPD_ID>
CHEMBL1210345

>  <STANDARD_TYPE>
IC50

>  <RELATION>
=

>  <STANDARD_VALUE>
11

>  <STANDARD_UNITS>
nM

>  <COMPOUND_KEY>
24

>  <PUBMED_ID>
20579874

>  <JOURNAL>
Bioorg. Med. Chem. Lett.

>  <YEAR>
2010

>  <VOLUME>
20

>  <FIRST_PAGE>
4639

>  <Company>
GSK

>  <idx>
422

>  <Model>
Valid

>  <target>
7.9586072

>  <des_pred_mlr>
7.7681799

>  <RF_Canvas>
7.9024358

>  <DNN_Canvas>
7.402421

>  <pred_CoMFA>
7.7087998

>  <pred_COMSIA>
8.3086996

>  <pred_abm5>
7.7628164

>  <pred_ff8>
8.1084042

>  <pred_gau6>
7.8999205

>  <CID>
BACE_422

>  <active>
1

>  <des_class_bayes>
1

>  <maacs_class_bayes>
1

>  <radial_class_bayes>
1

>  <dend_class_bayes>
1

>  <molprint_class_bayes>
1

>  <RF_canvas>
1

>  <DNN_canvas>
1

$$$$
CHEMBL1210349
  MOE2015           3D

 86 89  0  0  1  0  0  0  0  0999 V2000
   20.9260   12.3020   27.6030 C   0  0  0  0  0  0  0  0  0  0  0  0
   20.2640   11.1570   26.8570 C   0  0  3  0  0  0  0  0  0  0  0  0
   21.2670   10.3660   26.1000 N   0  3  0  0  0  0  0  0  0  0  0  0
   21.8970   11.1270   25.0050 C   0  0  0  0  0  0  0  0  0  0  0  0
   22.4530   10.1390   23.9780 C   0  0  3  0  0  0  0  0  0  0  0  0
   21.3320    9.3440   23.5740 O   0  0  0  0  0  0  0  0  0  0  0  0
   23.1060   10.8440   22.7960 C   0  0  3  0  0  0  0  0  0  0  0  0
   23.4280    9.8950   21.6440 C   0  0  0  0  0  0  0  0  0  0  0  0
   24.3110   10.5370   20.6000 C   0  0  0  0  0  0  0  0  0  0  0  0
   23.9700   11.7390   19.9960 C   0  0  0  0  0  0  0  0  0  0  0  0
   24.8050   12.3030   19.0450 C   0  0  0  0  0  0  0  0  0  0  0  0
   25.9840   11.6730   18.6870 C   0  0  0  0  0  0  0  0  0  0  0  0
   26.3250   10.4770   19.2830 C   0  0  0  0  0  0  0  0  0  0  0  0
   25.4930    9.9130   20.2330 C   0  0  0  0  0  0  0  0  0  0  0  0
   24.3240   11.5430   23.2230 N   0  0  0  0  0  0  0  0  0  0  0  0
   24.3340   12.9010   23.3860 C   0  0  0  0  0  0  0  0  0  0  0  0
   23.3260   13.6080   23.3880 O   0  0  0  0  0  0  0  0  0  0  0  0
   25.6870   13.4610   23.5640 C   0  0  0  0  0  0  0  0  0  0  0  0
   26.7520   12.9530   22.8410 C   0  0  0  0  0  0  0  0  0  0  0  0
   28.0260   13.4740   23.0230 C   0  0  0  0  0  0  0  0  0  0  0  0
   28.2310   14.5110   23.9240 C   0  0  0  0  0  0  0  0  0  0  0  0
   27.1480   15.0100   24.6360 C   0  0  0  0  0  0  0  0  0  0  0  0
   25.8780   14.4890   24.4640 C   0  0  0  0  0  0  0  0  0  0  0  0
   27.2970   16.0860   25.5750 N   0  0  0  0  0  0  0  0  0  0  0  0
   26.4820   17.2510   25.3990 C   0  0  0  0  0  0  0  0  0  0  0  0
   26.6630   18.0220   24.2710 C   0  0  0  0  0  0  0  0  0  0  0  0
   25.8640   19.1370   24.1070 C   0  0  0  0  0  0  0  0  0  0  0  0
   24.9250   19.4590   25.0620 C   0  0  0  0  0  0  0  0  0  0  0  0
   24.7560   18.6790   26.1830 C   0  0  0  0  0  0  0  0  0  0  0  0
   25.5390   17.5590   26.3600 C   0  0  0  0  0  0  0  0  0  0  0  0
   28.6320   16.2090   26.6040 S   0  0  0  0  0  0  0  0  0  0  0  0
   29.7320   17.2750   25.7120 C   0  0  0  0  0  0  0  0  0  0  0  0
   29.2570   14.9140   26.6820 O   0  0  0  0  0  0  0  0  0  0  0  0
   28.2360   16.9430   27.7840 O   0  0  0  0  0  0  0  0  0  0  0  0
   19.1940   11.6850   25.9180 C   0  0  0  0  0  0  0  0  0  0  0  0
   19.1500   12.8440   25.5090 O   0  0  0  0  0  0  0  0  0  0  0  0
   18.2590   10.7320   25.5800 N   0  0  0  0  0  0  0  0  0  0  0  0
   17.1780   11.0790   24.6520 C   0  0  0  0  0  0  0  0  0  0  0  0
   16.9820    9.9360   23.6870 C   0  0  0  0  0  0  0  0  0  0  0  0
   15.8540   10.1920   22.6900 C   0  0  0  0  0  0  0  0  0  0  0  0
   14.5580   10.4610   23.4320 C   0  0  0  0  0  0  0  0  0  0  0  0
   14.7700   11.6410   24.3720 C   0  0  0  0  0  0  0  0  0  0  0  0
   15.8730   11.3210   25.3830 C   0  0  0  0  0  0  0  0  0  0  0  0
   21.6900   11.9060   28.2720 H   0  0  0  0  0  0  0  0  0  0  0  0
   20.1760   12.8380   28.1850 H   0  0  0  0  0  0  0  0  0  0  0  0
   21.3860   12.9840   26.8880 H   0  0  0  0  0  0  0  0  0  0  0  0
   19.7950   10.5010   27.5910 H   0  0  0  0  0  0  0  0  0  0  0  0
   20.8080    9.5570   25.7070 H   0  0  0  0  0  0  0  0  0  0  0  0
   21.9890   10.0660   26.7400 H   0  0  0  0  0  0  0  0  0  0  0  0
   22.7070   11.7380   25.4020 H   0  0  0  0  0  0  0  0  0  0  0  0
   21.1550   11.7700   24.5310 H   0  0  0  0  0  0  0  0  0  0  0  0
   23.2470    9.5260   24.4060 H   0  0  0  0  0  0  0  0  0  0  0  0
   20.6720    9.9370   23.2080 H   0  0  0  0  0  0  0  0  0  0  0  0
   22.3790   11.5660   22.4250 H   0  0  0  0  0  0  0  0  0  0  0  0
   22.4950    9.5870   21.1720 H   0  0  0  0  0  0  0  0  0  0  0  0
   23.9390    9.0190   22.0440 H   0  0  0  0  0  0  0  0  0  0  0  0
   23.0510   12.2360   20.2680 H   0  0  0  0  0  0  0  0  0  0  0  0
   24.5340   13.2400   18.5800 H   0  0  0  0  0  0  0  0  0  0  0  0
   26.6330   12.1150   17.9460 H   0  0  0  0  0  0  0  0  0  0  0  0
   27.2430    9.9800   19.0070 H   0  0  0  0  0  0  0  0  0  0  0  0
   25.7670    8.9760   20.6940 H   0  0  0  0  0  0  0  0  0  0  0  0
   25.1660   11.0140   23.3990 H   0  0  0  0  0  0  0  0  0  0  0  0
   26.5920   12.1510   22.1350 H   0  0  0  0  0  0  0  0  0  0  0  0
   28.8580   13.0730   22.4640 H   0  0  0  0  0  0  0  0  0  0  0  0
   29.2190   14.9230   24.0690 H   0  0  0  0  0  0  0  0  0  0  0  0
   25.0450   14.8830   25.0280 H   0  0  0  0  0  0  0  0  0  0  0  0
   27.4090   17.7620   23.5350 H   0  0  0  0  0  0  0  0  0  0  0  0
   26.0420   20.1240   22.7090 Cl  0  0  0  0  0  0  0  0  0  0  0  0
   24.3120   20.3380   24.9290 H   0  0  0  0  0  0  0  0  0  0  0  0
   23.5720   19.1000   27.3590 Cl  0  0  0  0  0  0  0  0  0  0  0  0
   25.4180   16.9340   27.2330 H   0  0  0  0  0  0  0  0  0  0  0  0
   30.0680   16.7730   24.8040 H   0  0  0  0  0  0  0  0  0  0  0  0
   30.5940   17.5120   26.3360 H   0  0  0  0  0  0  0  0  0  0  0  0
   29.2110   18.1950   25.4470 H   0  0  0  0  0  0  0  0  0  0  0  0
   18.3170    9.8010   25.9680 H   0  0  0  0  0  0  0  0  0  0  0  0
   17.4570   11.9950   24.1300 H   0  0  0  0  0  0  0  0  0  0  0  0
   16.7470    9.0360   24.2560 H   0  0  0  0  0  0  0  0  0  0  0  0
   17.9090    9.7840   23.1330 H   0  0  0  0  0  0  0  0  0  0  0  0
   15.7300    9.3170   22.0520 H   0  0  0  0  0  0  0  0  0  0  0  0
   16.1040   11.0570   22.0750 H   0  0  0  0  0  0  0  0  0  0  0  0
   14.2750    9.5800   24.0080 H   0  0  0  0  0  0  0  0  0  0  0  0
   13.7690   10.6980   22.7180 H   0  0  0  0  0  0  0  0  0  0  0  0
   13.8420   11.8480   24.9050 H   0  0  0  0  0  0  0  0  0  0  0  0
   15.0580   12.5170   23.7910 H   0  0  0  0  0  0  0  0  0  0  0  0
   15.9910   12.1600   26.0680 H   0  0  0  0  0  0  0  0  0  0  0  0
   15.6010   10.4280   25.9460 H   0  0  0  0  0  0  0  0  0  0  0  0
  1  2  1  0  0  0  0
  1 44  1  0  0  0  0
  1 45  1  0  0  0  0
  1 46  1  0  0  0  0
  2  3  1  0  0  0  0
  2 35  1  0  0  0  0
  2 47  1  0  0  0  0
  3  4  1  0  0  0  0
  3 48  1  0  0  0  0
  3 49  1  0  0  0  0
  4  5  1  0  0  0  0
  4 50  1  0  0  0  0
  4 51  1  0  0  0  0
  5  6  1  0  0  0  0
  5  7  1  0  0  0  0
  5 52  1  0  0  0  0
  6 53  1  0  0  0  0
  7  8  1  0  0  0  0
  7 15  1  0  0  0  0
  7 54  1  0  0  0  0
  8  9  1  0  0  0  0
  8 55  1  0  0  0  0
  8 56  1  0  0  0  0
  9 10  1  0  0  0  0
  9 14  2  0  0  0  0
 10 11  2  0  0  0  0
 10 57  1  0  0  0  0
 11 12  1  0  0  0  0
 11 58  1  0  0  0  0
 12 13  2  0  0  0  0
 12 59  1  0  0  0  0
 13 14  1  0  0  0  0
 13 60  1  0  0  0  0
 14 61  1  0  0  0  0
 15 16  1  0  0  0  0
 15 62  1  0  0  0  0
 16 17  2  0  0  0  0
 16 18  1  0  0  0  0
 18 19  1  0  0  0  0
 18 23  2  0  0  0  0
 19 20  2  0  0  0  0
 19 63  1  0  0  0  0
 20 21  1  0  0  0  0
 20 64  1  0  0  0  0
 21 22  2  0  0  0  0
 21 65  1  0  0  0  0
 22 23  1  0  0  0  0
 22 24  1  0  0  0  0
 23 66  1  0  0  0  0
 24 25  1  0  0  0  0
 24 31  1  0  0  0  0
 25 26  1  0  0  0  0
 25 30  2  0  0  0  0
 26 27  2  0  0  0  0
 26 67  1  0  0  0  0
 27 28  1  0  0  0  0
 27 68  1  0  0  0  0
 28 29  2  0  0  0  0
 28 69  1  0  0  0  0
 29 30  1  0  0  0  0
 29 70  1  0  0  0  0
 30 71  1  0  0  0  0
 31 32  1  0  0  0  0
 31 33  2  0  0  0  0
 31 34  2  0  0  0  0
 32 72  1  0  0  0  0
 32 73  1  0  0  0  0
 32 74  1  0  0  0  0
 35 36  2  0  0  0  0
 35 37  1  0  0  0  0
 37 38  1  0  0  0  0
 37 75  1  0  0  0  0
 38 39  1  0  0  0  0
 38 43  1  0  0  0  0
 38 76  1  0  0  0  0
 39 40  1  0  0  0  0
 39 77  1  0  0  0  0
 39 78  1  0  0  0  0
 40 41  1  0  0  0  0
 40 79  1  0  0  0  0
 40 80  1  0  0  0  0
 41 42  1  0  0  0  0
 41 81  1  0  0  0  0
 41 82  1  0  0  0  0
 42 43  1  0  0  0  0
 42 83  1  0  0  0  0
 42 84  1  0  0  0  0
 43 85  1  0  0  0  0
 43 86  1  0  0  0  0
M  CHG  1   3   1
M  END
>  <PARENT_CMPD_ID>
CHEMBL1210349

>  <STANDARD_TYPE>
IC50

>  <RELATION>
=

>  <STANDARD_VALUE>
11

>  <STANDARD_UNITS>
nM

>  <COMPOUND_KEY>
28

>  <PUBMED_ID>
20579874

>  <JOURNAL>
Bioorg. Med. Chem. Lett.

>  <YEAR>
2010

>  <VOLUME>
20

>  <FIRST_PAGE>
4639

>  <Company>
GSK

>  <idx>
423

>  <Model>
Valid

>  <target>
7.9586072

>  <des_pred_mlr>
7.4650302

>  <RF_Canvas>
8.0213366

>  <DNN_Canvas>
8.0622015

>  <pred_CoMFA>
7.8786998

>  <pred_COMSIA>
8.151

>  <pred_abm5>
7.7940865

>  <pred_ff8>
8.4235573

>  <pred_gau6>
7.9858437

>  <CID>
BACE_423

>  <active>
1

>  <des_class_bayes>
0

>  <maacs_class_bayes>
1

>  <radial_class_bayes>
1

>  <dend_class_bayes>
1

>  <molprint_class_bayes>
1

>  <RF_canvas>
1

>  <DNN_canvas>
0

$$$$
21707077_59
  MOE2015           3D

 59 61  0  0  1  0  0  0  0  0999 V2000
   20.6840   12.9840   18.6770 C   0  0  0  0  0  0  0  0  0  0  0  0
   21.5510   13.9710   18.1770 C   0  0  0  0  0  0  0  0  0  0  0  0
   21.1300   14.7940   17.1310 C   0  0  0  0  0  0  0  0  0  0  0  0
   21.7910   15.5560   16.7450 H   0  0  0  0  0  0  0  0  0  0  0  0
   21.0450   12.1310   19.7240 C   0  0  0  0  0  0  0  0  0  0  0  0
   21.2420   10.7720   19.4700 C   0  0  0  0  0  0  0  0  0  0  0  0
   21.1250   10.3900   18.4660 H   0  0  0  0  0  0  0  0  0  0  0  0
   21.1810   12.6190   21.0270 C   0  0  0  0  0  0  0  0  0  0  0  0
   21.0110   13.6660   21.2330 H   0  0  0  0  0  0  0  0  0  0  0  0
   22.0390   11.3280   24.3910 C   0  0  0  0  0  0  0  0  0  0  0  0
   22.9680   14.1880   18.7410 Cl  0  0  0  0  0  0  0  0  0  0  0  0
   21.0080   11.4300   26.6850 C   0  0  3  0  0  0  0  0  0  0  0  0
   21.0070   10.3410   26.6490 H   0  0  0  0  0  0  0  0  0  0  0  0
   19.6570   11.9440   26.1690 C   0  0  0  0  0  0  0  0  0  0  0  0
   17.0580   11.1470   23.9620 C   0  0  0  0  0  0  0  0  0  0  0  0
   16.0110   11.4300   23.8540 H   0  0  0  0  0  0  0  0  0  0  0  0
   17.7370   11.7550   23.3650 H   0  0  0  0  0  0  0  0  0  0  0  0
   16.7470    9.5670   22.0290 C   0  0  0  0  0  0  0  0  0  0  0  0
   15.6760    9.7680   21.9920 H   0  0  0  0  0  0  0  0  0  0  0  0
   16.9380    8.5500   21.6870 H   0  0  0  0  0  0  0  0  0  0  0  0
   17.2760   10.2740   21.3900 H   0  0  0  0  0  0  0  0  0  0  0  0
   17.2290    9.7010   23.4910 C   0  0  0  0  0  0  0  0  0  0  0  0
   16.4150    8.7880   24.3730 C   0  0  0  0  0  0  0  0  0  0  0  0
   16.5360    7.7570   24.0380 H   0  0  0  0  0  0  0  0  0  0  0  0
   15.3630    9.0680   24.3140 H   0  0  0  0  0  0  0  0  0  0  0  0
   16.7580    8.8770   25.4040 H   0  0  0  0  0  0  0  0  0  0  0  0
   18.6840    9.3150   23.5750 C   0  0  0  0  0  0  0  0  0  0  0  0
   18.8070    8.2850   23.2400 H   0  0  0  0  0  0  0  0  0  0  0  0
   19.0250    9.4040   24.6070 H   0  0  0  0  0  0  0  0  0  0  0  0
   19.2730    9.9770   22.9400 H   0  0  0  0  0  0  0  0  0  0  0  0
   17.3750   11.3150   25.4590 C   0  0  0  0  0  0  0  0  0  0  0  0
   16.7010   10.6640   26.0150 H   0  0  0  0  0  0  0  0  0  0  0  0
   17.1780   12.3540   25.7240 H   0  0  0  0  0  0  0  0  0  0  0  0
   18.7600   10.9970   25.8830 N   0  0  0  0  0  0  0  0  0  0  0  0
   19.0350   10.0280   25.9580 H   0  0  0  0  0  0  0  0  0  0  0  0
   19.4450   13.1560   26.0680 O   0  0  0  0  0  0  0  0  0  0  0  0
   21.1960   11.9200   28.1360 C   0  0  0  0  0  0  0  0  0  0  0  0
   21.2160   13.0100   28.1450 H   0  0  0  0  0  0  0  0  0  0  0  0
   22.1400   11.5360   28.5230 H   0  0  0  0  0  0  0  0  0  0  0  0
   20.3740   11.5640   28.7580 H   0  0  0  0  0  0  0  0  0  0  0  0
   22.1780   11.9070   25.8040 C   0  0  0  0  0  0  0  0  0  0  0  0
   22.1690   12.9960   25.7510 H   0  0  0  0  0  0  0  0  0  0  0  0
   23.1190   11.5720   26.2410 H   0  0  0  0  0  0  0  0  0  0  0  0
   22.2250    9.9790   24.0560 C   0  0  0  0  0  0  0  0  0  0  0  0
   22.0720    9.5580   22.7890 N   0  0  0  0  0  0  0  0  0  0  0  0
   22.5620    9.0810   24.9770 N   0  0  0  0  0  0  0  0  0  0  0  0
   22.6950    8.1150   24.7150 H   0  0  0  0  0  0  0  0  0  0  0  0
   22.6850    9.3650   25.9380 H   0  0  0  0  0  0  0  0  0  0  0  0
   21.6890   12.2170   23.3710 C   0  0  0  0  0  0  0  0  0  0  0  0
   21.5360   13.2630   23.5940 H   0  0  0  0  0  0  0  0  0  0  0  0
   21.5370   11.7510   22.0630 C   0  0  0  0  0  0  0  0  0  0  0  0
   21.7360   10.3970   21.7980 C   0  0  0  0  0  0  0  0  0  0  0  0
   21.5880    9.9070   20.5040 C   0  0  0  0  0  0  0  0  0  0  0  0
   21.7410    8.8570   20.3020 H   0  0  0  0  0  0  0  0  0  0  0  0
   19.4110   12.8350   18.1190 N   0  0  0  0  0  0  0  0  0  0  0  0
   18.9990   13.6590   17.0770 C   0  0  0  0  0  0  0  0  0  0  0  0
   18.0130   13.5420   16.6520 H   0  0  0  0  0  0  0  0  0  0  0  0
   19.8580   14.6340   16.5830 C   0  0  0  0  0  0  0  0  0  0  0  0
   19.5390   15.2700   15.7710 H   0  0  0  0  0  0  0  0  0  0  0  0
  1  2  2  0  0  0  0
  1  5  1  0  0  0  0
  1 55  1  0  0  0  0
  2  3  1  0  0  0  0
  2 11  1  0  0  0  0
  3  4  1  0  0  0  0
  3 58  2  0  0  0  0
  5  6  1  0  0  0  0
  5  8  2  0  0  0  0
  6  7  1  0  0  0  0
  6 53  2  0  0  0  0
  8  9  1  0  0  0  0
  8 51  1  0  0  0  0
 10 41  1  0  0  0  0
 10 44  2  0  0  0  0
 10 49  1  0  0  0  0
 12 13  1  0  0  0  0
 12 14  1  0  0  0  0
 12 37  1  0  0  0  0
 12 41  1  0  0  0  0
 14 34  1  0  0  0  0
 14 36  2  0  0  0  0
 15 16  1  0  0  0  0
 15 17  1  0  0  0  0
 15 22  1  0  0  0  0
 15 31  1  0  0  0  0
 18 19  1  0  0  0  0
 18 20  1  0  0  0  0
 18 21  1  0  0  0  0
 18 22  1  0  0  0  0
 22 23  1  0  0  0  0
 22 27  1  0  0  0  0
 23 24  1  0  0  0  0
 23 25  1  0  0  0  0
 23 26  1  0  0  0  0
 27 28  1  0  0  0  0
 27 29  1  0  0  0  0
 27 30  1  0  0  0  0
 31 32  1  0  0  0  0
 31 33  1  0  0  0  0
 31 34  1  0  0  0  0
 34 35  1  0  0  0  0
 37 38  1  0  0  0  0
 37 39  1  0  0  0  0
 37 40  1  0  0  0  0
 41 42  1  0  0  0  0
 41 43  1  0  0  0  0
 44 45  1  0  0  0  0
 44 46  1  0  0  0  0
 45 52  2  0  0  0  0
 46 47  1  0  0  0  0
 46 48  1  0  0  0  0
 49 50  1  0  0  0  0
 49 51  2  0  0  0  0
 51 52  1  0  0  0  0
 52 53  1  0  0  0  0
 53 54  1  0  0  0  0
 55 56  2  0  0  0  0
 56 57  1  0  0  0  0
 56 58  1  0  0  0  0
 58 59  1  0  0  0  0
M  END
>  <PARENT_CMPD_ID>
21707077_59

>  <STANDARD_TYPE>
IC50

>  <RELATION>
=

>  <STANDARD_VALUE>
0.011

>  <STANDARD_UNITS>
uM

>  <COMPOUND_KEY>
59

>  <PUBMED_ID>
21707077

>  <JOURNAL>
J.Med.Chem.

>  <YEAR>
2011

>  <VOLUME>
54

>  <FIRST_PAGE>
5836

>  <Company>
Amgen

>  <idx>
424

>  <Model>
Valid

>  <target>
7.9586072

>  <des_pred_mlr>
7.3443599

>  <RF_Canvas>
6.5798779

>  <DNN_Canvas>
7.0968881

>  <pred_CoMFA>
7.0434999

>  <pred_COMSIA>
6.4439998

>  <pred_abm5>
7.3809786

>  <pred_ff8>
5.6152639

>  <pred_gau6>
6.8394675

>  <CID>
BACE_424

>  <active>
1

>  <des_class_bayes>
0

>  <maacs_class_bayes>
0

>  <radial_class_bayes>
1

>  <dend_class_bayes>
1

>  <molprint_class_bayes>
1

>  <RF_canvas>
0

>  <DNN_canvas>
0

$$$$
CHEMBL1915751
  MOE2015           3D

 96100  0  0  1  0  0  0  0  0999 V2000
   25.5440   20.2660   25.3840 C   0  0  0  0  0  0  0  0  0  0  0  0
   25.3300   21.3190   25.4890 H   0  0  0  0  0  0  0  0  0  0  0  0
   25.0640   12.0980   18.3880 C   0  0  0  0  0  0  0  0  0  0  0  0
   25.4760   12.6410   17.5510 H   0  0  0  0  0  0  0  0  0  0  0  0
   24.8550   19.2500   26.2860 C   0  0  0  0  0  0  0  0  0  0  0  0
   24.1510   19.5800   27.0350 H   0  0  0  0  0  0  0  0  0  0  0  0
   26.5380   19.7860   24.3330 C   0  0  0  0  0  0  0  0  0  0  0  0
   27.0290   20.5070   23.6960 H   0  0  0  0  0  0  0  0  0  0  0  0
   23.7700   12.5730   19.0460 C   0  0  0  0  0  0  0  0  0  0  0  0
   23.2650   13.4530   18.6760 H   0  0  0  0  0  0  0  0  0  0  0  0
   25.7760   10.8510   18.9170 C   0  0  0  0  0  0  0  0  0  0  0  0
   26.6900   10.5130   18.4510 H   0  0  0  0  0  0  0  0  0  0  0  0
   17.0770   13.1550   25.3900 C   0  0  0  0  0  0  0  0  0  0  0  0
   16.7080   14.1620   25.2630 H   0  0  0  0  0  0  0  0  0  0  0  0
   25.1630   17.7660   26.1270 C   0  0  0  0  0  0  0  0  0  0  0  0
   24.6780   17.0450   26.7690 H   0  0  0  0  0  0  0  0  0  0  0  0
   26.8480   18.3030   24.1690 C   0  0  0  0  0  0  0  0  0  0  0  0
   27.5550   17.9720   23.4220 H   0  0  0  0  0  0  0  0  0  0  0  0
   23.1920   11.7950   20.2340 C   0  0  0  0  0  0  0  0  0  0  0  0
   22.2780   12.1300   20.7020 H   0  0  0  0  0  0  0  0  0  0  0  0
   25.1970   10.0830   20.1030 C   0  0  0  0  0  0  0  0  0  0  0  0
   25.7070    9.2080   20.4780 H   0  0  0  0  0  0  0  0  0  0  0  0
   18.3620   12.9170   26.1880 C   0  0  0  0  0  0  0  0  0  0  0  0
   18.9010   13.7470   26.6200 H   0  0  0  0  0  0  0  0  0  0  0  0
   16.3070   11.9840   24.7690 C   0  0  0  0  0  0  0  0  0  0  0  0
   15.4020   12.1680   24.2090 H   0  0  0  0  0  0  0  0  0  0  0  0
   18.0990   10.3190   25.7430 C   0  0  0  0  0  0  0  0  0  0  0  0
   18.4660    9.3120   25.8740 H   0  0  0  0  0  0  0  0  0  0  0  0
   26.1510   17.2930   25.0690 C   0  0  0  0  0  0  0  0  0  0  0  0
   23.9030   10.5460   20.7600 C   0  0  0  0  0  0  0  0  0  0  0  0
   18.8690   11.4880   26.3630 C   0  0  0  0  0  0  0  0  0  0  0  0
   16.8220   10.5540   24.9440 C   0  0  0  0  0  0  0  0  0  0  0  0
   27.7350   13.0500   23.1850 C   0  0  0  0  0  0  0  0  0  0  0  0
   30.0440   14.9540   22.5980 C   0  0  0  0  0  0  0  0  0  0  0  0
   24.0040   12.9240   23.7880 C   0  0  0  0  0  0  0  0  0  0  0  0
   27.4330   13.9820   20.9840 C   0  0  0  0  0  0  0  0  0  0  0  0
   27.8040   15.0070   20.9950 H   0  0  0  0  0  0  0  0  0  0  0  0
   27.3830   13.6250   19.9550 H   0  0  0  0  0  0  0  0  0  0  0  0
   26.0390   13.9260   21.6230 C   0  0  0  0  0  0  0  0  0  0  0  0
   25.4140   13.1780   21.1360 H   0  0  0  0  0  0  0  0  0  0  0  0
   25.5470   14.8970   21.5760 H   0  0  0  0  0  0  0  0  0  0  0  0
   28.3710   13.0780   21.8060 C   0  0  3  0  0  0  0  0  0  0  0  0
   31.5280   15.3240   22.6510 C   0  0  0  0  0  0  0  0  0  0  0  0
   31.7980   15.8720   21.7480 H   0  0  0  0  0  0  0  0  0  0  0  0
   32.1270   14.4160   22.7180 H   0  0  0  0  0  0  0  0  0  0  0  0
   31.7160   15.9480   23.5240 H   0  0  0  0  0  0  0  0  0  0  0  0
   29.4550    9.2860   21.8020 C   0  0  0  0  0  0  0  0  0  0  0  0
   29.6710    9.1790   20.7450 H   0  0  0  0  0  0  0  0  0  0  0  0
   29.1690    8.3600   22.2890 H   0  0  0  0  0  0  0  0  0  0  0  0
   16.1710    9.2330   22.9690 C   0  0  0  0  0  0  0  0  0  0  0  0
   15.5970    8.3440   22.7090 H   0  0  0  0  0  0  0  0  0  0  0  0
   17.2060    9.1030   22.6520 H   0  0  0  0  0  0  0  0  0  0  0  0
   15.7440   10.1010   22.4670 H   0  0  0  0  0  0  0  0  0  0  0  0
   26.4490   15.8140   24.9270 C   0  0  0  0  0  0  0  0  0  0  0  0
   26.8900   15.4390   25.8500 H   0  0  0  0  0  0  0  0  0  0  0  0
   27.1450   15.6580   24.1020 H   0  0  0  0  0  0  0  0  0  0  0  0
   23.3370    9.7730   21.9500 C   0  0  0  0  0  0  0  0  0  0  0  0
   24.0900    9.0630   22.2930 H   0  0  0  0  0  0  0  0  0  0  0  0
   22.4490    9.2320   21.6220 H   0  0  0  0  0  0  0  0  0  0  0  0
   20.1520   11.2190   27.1510 C   0  0  0  0  0  0  0  0  0  0  0  0
   19.8920   10.7580   28.1040 H   0  0  0  0  0  0  0  0  0  0  0  0
   20.6600   12.1660   27.3330 H   0  0  0  0  0  0  0  0  0  0  0  0
   28.8300   10.5670   22.2910 C   0  0  0  0  0  0  0  0  0  0  0  0
   30.2740   10.2660   22.5940 C   0  0  0  0  0  0  0  0  0  0  0  0
   30.5270   10.0130   23.6180 H   0  0  0  0  0  0  0  0  0  0  0  0
   31.0510   10.8070   22.0690 H   0  0  0  0  0  0  0  0  0  0  0  0
   28.1020   10.4470   23.0860 H   0  0  0  0  0  0  0  0  0  0  0  0
   25.1510   15.0780   24.6460 C   0  0  0  0  0  0  0  0  0  0  0  0
   24.6020   15.6300   23.8830 H   0  0  0  0  0  0  0  0  0  0  0  0
   24.5670   15.0500   25.5660 H   0  0  0  0  0  0  0  0  0  0  0  0
   21.4960   10.9430   25.1360 C   0  0  0  0  0  0  0  0  0  0  0  0
   20.6140   11.2220   24.5600 H   0  0  0  0  0  0  0  0  0  0  0  0
   22.0850   11.8340   25.3530 H   0  0  0  0  0  0  0  0  0  0  0  0
   25.3450   13.6460   24.1560 C   0  0  3  0  0  0  0  0  0  0  0  0
   25.7640   13.1060   25.0050 H   0  0  0  0  0  0  0  0  0  0  0  0
   28.4460   11.6360   21.2920 C   0  0  0  0  0  0  0  0  0  0  0  0
   27.4210   11.4170   20.9920 H   0  0  0  0  0  0  0  0  0  0  0  0
   29.1960   11.5630   20.5040 H   0  0  0  0  0  0  0  0  0  0  0  0
   22.9510   10.6790   23.1230 C   0  0  3  0  0  0  0  0  0  0  0  0
   22.1400   11.3150   22.7680 H   0  0  0  0  0  0  0  0  0  0  0  0
   22.3370    9.9650   24.3300 C   0  0  3  0  0  0  0  0  0  0  0  0
   23.1530    9.5780   24.9400 H   0  0  0  0  0  0  0  0  0  0  0  0
   26.3360   13.5410   23.0350 N   0  0  0  0  0  0  0  0  0  0  0  0
   29.7260   13.7100   22.0440 N   0  0  0  0  0  0  0  0  0  0  0  0
   30.5290   13.1560   21.7750 H   0  0  0  0  0  0  0  0  0  0  0  0
   24.1020   11.5620   23.5080 N   0  0  0  0  0  0  0  0  0  0  0  0
   25.0290   11.1480   23.5480 H   0  0  0  0  0  0  0  0  0  0  0  0
   21.0740   10.3090   26.4090 N   0  3  0  0  0  0  0  0  0  0  0  0
   20.5980    9.4410   26.2090 H   0  0  0  0  0  0  0  0  0  0  0  0
   21.8890   10.1230   26.9760 H   0  0  0  0  0  0  0  0  0  0  0  0
   28.3970   12.5840   24.3550 O   0  0  0  0  0  0  0  0  0  0  0  0
   29.0700   15.8410   23.1320 O   0  0  0  0  0  0  0  0  0  0  0  0
   22.9140   13.4950   23.8260 O   0  0  0  0  0  0  0  0  0  0  0  0
   21.5090    8.8770   23.9180 O   0  0  0  0  0  0  0  0  0  0  0  0
   20.7990    9.2390   23.3830 H   0  0  0  0  0  0  0  0  0  0  0  0
   16.1270    9.4320   24.3850 O   0  0  0  0  0  0  0  0  0  0  0  0
  1  2  1  0  0  0  0
  1  5  2  0  0  0  0
  1  7  1  0  0  0  0
  3  4  1  0  0  0  0
  3  9  2  0  0  0  0
  3 11  1  0  0  0  0
  5  6  1  0  0  0  0
  5 15  1  0  0  0  0
  7  8  1  0  0  0  0
  7 17  2  0  0  0  0
  9 10  1  0  0  0  0
  9 19  1  0  0  0  0
 11 12  1  0  0  0  0
 11 21  2  0  0  0  0
 13 14  1  0  0  0  0
 13 23  2  0  0  0  0
 13 25  1  0  0  0  0
 15 16  1  0  0  0  0
 15 29  2  0  0  0  0
 17 18  1  0  0  0  0
 17 29  1  0  0  0  0
 19 20  1  0  0  0  0
 19 30  2  0  0  0  0
 21 22  1  0  0  0  0
 21 30  1  0  0  0  0
 23 24  1  0  0  0  0
 23 31  1  0  0  0  0
 25 26  1  0  0  0  0
 25 32  2  0  0  0  0
 27 28  1  0  0  0  0
 27 31  2  0  0  0  0
 27 32  1  0  0  0  0
 29 54  1  0  0  0  0
 30 57  1  0  0  0  0
 31 60  1  0  0  0  0
 32 96  1  0  0  0  0
 33 42  1  0  0  0  0
 33 83  1  0  0  0  0
 33 91  2  0  0  0  0
 34 43  1  0  0  0  0
 34 84  1  0  0  0  0
 34 92  2  0  0  0  0
 35 74  1  0  0  0  0
 35 86  1  0  0  0  0
 35 93  2  0  0  0  0
 36 37  1  0  0  0  0
 36 38  1  0  0  0  0
 36 39  1  0  0  0  0
 36 42  1  0  0  0  0
 39 40  1  0  0  0  0
 39 41  1  0  0  0  0
 39 83  1  0  0  0  0
 42 76  1  0  0  0  0
 42 84  1  0  0  0  0
 43 44  1  0  0  0  0
 43 45  1  0  0  0  0
 43 46  1  0  0  0  0
 47 48  1  0  0  0  0
 47 49  1  0  0  0  0
 47 63  1  0  0  0  0
 47 64  1  0  0  0  0
 50 51  1  0  0  0  0
 50 52  1  0  0  0  0
 50 53  1  0  0  0  0
 50 96  1  0  0  0  0
 54 55  1  0  0  0  0
 54 56  1  0  0  0  0
 54 68  1  0  0  0  0
 57 58  1  0  0  0  0
 57 59  1  0  0  0  0
 57 79  1  0  0  0  0
 60 61  1  0  0  0  0
 60 62  1  0  0  0  0
 60 88  1  0  0  0  0
 63 64  1  0  0  0  0
 63 67  1  0  0  0  0
 63 76  1  0  0  0  0
 64 65  1  0  0  0  0
 64 66  1  0  0  0  0
 68 69  1  0  0  0  0
 68 70  1  0  0  0  0
 68 74  1  0  0  0  0
 71 72  1  0  0  0  0
 71 73  1  0  0  0  0
 71 81  1  0  0  0  0
 71 88  1  0  0  0  0
 74 75  1  0  0  0  0
 74 83  1  0  0  0  0
 76 77  1  0  0  0  0
 76 78  1  0  0  0  0
 79 80  1  0  0  0  0
 79 81  1  0  0  0  0
 79 86  1  0  0  0  0
 81 82  1  0  0  0  0
 81 94  1  0  0  0  0
 84 85  1  0  0  0  0
 86 87  1  0  0  0  0
 88 89  1  0  0  0  0
 88 90  1  0  0  0  0
 94 95  1  0  0  0  0
M  CHG  1  88   1
M  END
>  <PARENT_CMPD_ID>
CHEMBL1915751

>  <STANDARD_TYPE>
IC50

>  <RELATION>
=

>  <STANDARD_VALUE>
11

>  <STANDARD_UNITS>
nM

>  <COMPOUND_KEY>
1b

>  <PUBMED_ID>
21782431

>  <JOURNAL>
Bioorg.Med.Chem.Lett.

>  <YEAR>
2011

>  <VOLUME>
21

>  <FIRST_PAGE>
6916

>  <Company>
BMS

>  <idx>
425

>  <Model>
Valid

>  <target>
7.9586072

>  <des_pred_mlr>
7.3018899

>  <RF_Canvas>
7.7538767

>  <DNN_Canvas>
7.6122518

>  <pred_CoMFA>
8.5115995

>  <pred_COMSIA>
8.9702997

>  <pred_abm5>
8.5455923

>  <pred_ff8>
7.8405695

>  <pred_gau6>
8.6538467

>  <CID>
BACE_425

>  <active>
1

>  <des_class_bayes>
1

>  <maacs_class_bayes>
0

>  <radial_class_bayes>
0

>  <dend_class_bayes>
1

>  <molprint_class_bayes>
1

>  <RF_canvas>
1

>  <DNN_canvas>
1

$$$$
22380629_60c
  MOE2015           3D
HYDROLASE/HYDROLASE INHIBITOR
 73 76  0  0  1  0  0  0  0  0999 V2000
   28.4150   11.1200   20.8790 C   0  0  0  0  0  0  0  0  0  0  0  0
   28.0710   11.6140   21.7970 H   0  0  0  0  0  0  0  0  0  0  0  0
   27.5790   11.4590   19.7530 O   0  0  0  0  0  0  0  0  0  0  0  0
   26.2120   11.4570   19.9250 C   0  0  0  0  0  0  0  0  0  0  0  0
   25.4690   12.2210   19.0230 C   0  0  0  0  0  0  0  0  0  0  0  0
   24.0800   12.2000   19.1420 C   0  0  0  0  0  0  0  0  0  0  0  0
   23.4350   11.4550   20.1220 C   0  0  0  0  0  0  0  0  0  0  0  0
   22.3500   11.4860   20.1700 H   0  0  0  0  0  0  0  0  0  0  0  0
   24.1760   10.7000   21.0260 C   0  0  0  0  0  0  0  0  0  0  0  0
   25.5680   10.6990   20.9080 C   0  0  0  0  0  0  0  0  0  0  0  0
   26.1460   10.0960   21.6020 H   0  0  0  0  0  0  0  0  0  0  0  0
   23.5150    9.9410   22.1480 C   0  0  0  0  0  0  0  0  0  0  0  0
   24.2340    9.2560   22.6160 H   0  0  0  0  0  0  0  0  0  0  0  0
   22.7360    9.3020   21.7130 H   0  0  0  0  0  0  0  0  0  0  0  0
   22.9120   10.8660   23.2180 C   0  0  3  0  0  0  0  0  0  0  0  0
   22.1280   11.4530   22.7180 H   0  0  0  0  0  0  0  0  0  0  0  0
   22.2300   10.0810   24.3660 C   0  0  3  0  0  0  0  0  0  0  0  0
   22.9730    9.4610   24.8820 H   0  0  0  0  0  0  0  0  0  0  0  0
   21.5270   11.0130   25.3810 C   0  0  3  0  0  0  0  0  0  0  0  0
   20.7180   11.5320   24.8540 H   0  0  0  0  0  0  0  0  0  0  0  0
   22.4580   11.9960   26.0570 C   0  0  0  0  0  0  0  0  0  0  0  0
   23.2610   11.4940   26.6060 H   0  0  0  0  0  0  0  0  0  0  0  0
   21.9280   12.6590   26.7480 H   0  0  0  0  0  0  0  0  0  0  0  0
   23.2050   13.0370   24.8340 S   0  0  0  0  0  0  0  0  0  0  0  0
   23.9630   11.8260   23.7820 C   0  0  0  0  0  0  0  0  0  0  0  0
   24.4640   12.4070   23.0020 H   0  0  0  0  0  0  0  0  0  0  0  0
   24.7270   11.3010   24.3650 H   0  0  0  0  0  0  0  0  0  0  0  0
   24.2440   13.8140   25.4680 O   0  0  0  0  0  0  0  0  0  0  0  0
   22.1550   13.6760   24.0720 O   0  0  0  0  0  0  0  0  0  0  0  0
   20.8550   10.1240   26.4120 N   0  3  0  0  0  0  0  0  0  0  0  0
   21.5460    9.6390   27.0000 H   0  0  0  0  0  0  0  0  0  0  0  0
   20.4130    9.3720   25.8530 H   0  0  0  0  0  0  0  0  0  0  0  0
   19.8120   10.7510   27.2840 C   0  0  0  0  0  0  0  0  0  0  0  0
   20.3330   11.4360   27.9620 H   0  0  0  0  0  0  0  0  0  0  0  0
   19.4010    9.9420   27.8980 H   0  0  0  0  0  0  0  0  0  0  0  0
   18.7080   11.4370   26.5360 C   0  0  0  0  0  0  0  0  0  0  0  0
   17.7950   10.6930   25.7810 C   0  0  0  0  0  0  0  0  0  0  0  0
   17.8850    9.6080   25.7730 H   0  0  0  0  0  0  0  0  0  0  0  0
   16.7760   11.3000   25.0320 C   0  0  0  0  0  0  0  0  0  0  0  0
   16.7090   12.6940   25.0630 C   0  0  0  0  0  0  0  0  0  0  0  0
   15.9550   13.2390   24.5010 H   0  0  0  0  0  0  0  0  0  0  0  0
   17.6060   13.4460   25.8140 C   0  0  0  0  0  0  0  0  0  0  0  0
   17.5270   14.5310   25.8180 H   0  0  0  0  0  0  0  0  0  0  0  0
   18.5990   12.8230   26.5490 C   0  0  0  0  0  0  0  0  0  0  0  0
   19.2880   13.4380   27.1240 H   0  0  0  0  0  0  0  0  0  0  0  0
   15.8090   10.4430   24.2130 C   0  0  0  0  0  0  0  0  0  0  0  0
   15.1560    9.3770   25.1050 C   0  0  0  0  0  0  0  0  0  0  0  0
   14.6390    9.8350   25.9570 H   0  0  0  0  0  0  0  0  0  0  0  0
   15.8810    8.6620   25.5080 H   0  0  0  0  0  0  0  0  0  0  0  0
   14.4170    8.7900   24.5470 H   0  0  0  0  0  0  0  0  0  0  0  0
   14.6660   11.2390   23.5650 C   0  0  0  0  0  0  0  0  0  0  0  0
   14.0660   11.7680   24.3150 H   0  0  0  0  0  0  0  0  0  0  0  0
   13.9850   10.5810   23.0130 H   0  0  0  0  0  0  0  0  0  0  0  0
   15.0400   11.9780   22.8470 H   0  0  0  0  0  0  0  0  0  0  0  0
   16.5810    9.7500   23.0840 C   0  0  0  0  0  0  0  0  0  0  0  0
   17.3620    9.0820   23.4650 H   0  0  0  0  0  0  0  0  0  0  0  0
   17.0710   10.4810   22.4290 H   0  0  0  0  0  0  0  0  0  0  0  0
   15.9160    9.1420   22.4600 H   0  0  0  0  0  0  0  0  0  0  0  0
   21.2200    9.1980   23.8720 O   0  0  0  0  0  0  0  0  0  0  0  0
   20.7750    9.6020   23.1020 H   0  0  0  0  0  0  0  0  0  0  0  0
   23.3380   12.9220   18.2950 F   0  0  0  0  0  0  0  0  0  0  0  0
   26.0930   12.9830   18.0450 N   0  0  0  0  0  0  0  0  0  0  0  0
   25.5460   13.5400   17.4020 H   0  0  0  0  0  0  0  0  0  0  0  0
   27.1040   12.9660   17.9860 H   0  0  0  0  0  0  0  0  0  0  0  0
   28.7650    9.6190   21.0410 C   0  0  0  0  0  0  0  0  0  0  0  0
   30.0150    9.8830   20.2050 C   0  0  0  0  0  0  0  0  0  0  0  0
   29.8670    9.7400   19.1290 H   0  0  0  0  0  0  0  0  0  0  0  0
   30.9160    9.3470   20.5130 H   0  0  0  0  0  0  0  0  0  0  0  0
   29.9230   11.3420   20.6520 C   0  0  0  0  0  0  0  0  0  0  0  0
   30.1900   12.0800   19.8900 H   0  0  0  0  0  0  0  0  0  0  0  0
   30.4790   11.5670   21.5690 H   0  0  0  0  0  0  0  0  0  0  0  0
   28.9680    9.3250   22.0770 H   0  0  0  0  0  0  0  0  0  0  0  0
   28.0670    8.9010   20.6010 H   0  0  0  0  0  0  0  0  0  0  0  0
  1  2  1  0  0  0  0
  1  3  1  0  0  0  0
  1 65  1  0  0  0  0
  1 69  1  0  0  0  0
  3  4  1  0  0  0  0
  4  5  1  0  0  0  0
  4 10  2  0  0  0  0
  5  6  2  0  0  0  0
  5 62  1  0  0  0  0
  6  7  1  0  0  0  0
  6 61  1  0  0  0  0
  7  8  1  0  0  0  0
  7  9  2  0  0  0  0
  9 10  1  0  0  0  0
  9 12  1  0  0  0  0
 10 11  1  0  0  0  0
 12 13  1  0  0  0  0
 12 14  1  0  0  0  0
 12 15  1  0  0  0  0
 15 16  1  0  0  0  0
 15 17  1  0  0  0  0
 15 25  1  0  0  0  0
 17 18  1  0  0  0  0
 17 19  1  0  0  0  0
 17 59  1  0  0  0  0
 19 20  1  0  0  0  0
 19 21  1  0  0  0  0
 19 30  1  0  0  0  0
 21 22  1  0  0  0  0
 21 23  1  0  0  0  0
 21 24  1  0  0  0  0
 24 25  1  0  0  0  0
 24 28  2  0  0  0  0
 24 29  2  0  0  0  0
 25 26  1  0  0  0  0
 25 27  1  0  0  0  0
 30 31  1  0  0  0  0
 30 32  1  0  0  0  0
 30 33  1  0  0  0  0
 33 34  1  0  0  0  0
 33 35  1  0  0  0  0
 33 36  1  0  0  0  0
 36 37  1  0  0  0  0
 36 44  2  0  0  0  0
 37 38  1  0  0  0  0
 37 39  2  0  0  0  0
 39 40  1  0  0  0  0
 39 46  1  0  0  0  0
 40 41  1  0  0  0  0
 40 42  2  0  0  0  0
 42 43  1  0  0  0  0
 42 44  1  0  0  0  0
 44 45  1  0  0  0  0
 46 47  1  0  0  0  0
 46 51  1  0  0  0  0
 46 55  1  0  0  0  0
 47 48  1  0  0  0  0
 47 49  1  0  0  0  0
 47 50  1  0  0  0  0
 51 52  1  0  0  0  0
 51 53  1  0  0  0  0
 51 54  1  0  0  0  0
 55 56  1  0  0  0  0
 55 57  1  0  0  0  0
 55 58  1  0  0  0  0
 59 60  1  0  0  0  0
 62 63  1  0  0  0  0
 62 64  1  0  0  0  0
 65 66  1  0  0  0  0
 65 72  1  0  0  0  0
 65 73  1  0  0  0  0
 66 67  1  0  0  0  0
 66 68  1  0  0  0  0
 66 69  1  0  0  0  0
 69 70  1  0  0  0  0
 69 71  1  0  0  0  0
M  CHG  1  30   1
M  END
>  <PARENT_CMPD_ID>
22380629_60c

>  <STANDARD_TYPE>
IC50

>  <RELATION>
=

>  <STANDARD_VALUE>
11

>  <STANDARD_UNITS>
nM

>  <COMPOUND_KEY>
60c

>  <PUBMED_ID>
22380629

>  <JOURNAL>
J.Med.Chem.

>  <YEAR>
2012

>  <VOLUME>
55

>  <FIRST_PAGE>
3364

>  <Company>
Novartis

>  <idx>
426

>  <Model>
Valid

>  <target>
7.9586072

>  <des_pred_mlr>
7.16401

>  <RF_Canvas>
7.2417774

>  <DNN_Canvas>
7.7033935

>  <pred_CoMFA>
7.9608998

>  <pred_COMSIA>
7.6675

>  <pred_abm5>
7.9191875

>  <pred_ff8>
7.8870325

>  <pred_gau6>
7.3863549

>  <CID>
BACE_426

>  <active>
1

>  <des_class_bayes>
0

>  <maacs_class_bayes>
1

>  <radial_class_bayes>
1

>  <dend_class_bayes>
1

>  <molprint_class_bayes>
1

>  <RF_canvas>
1

>  <DNN_canvas>
1

$$$$
22468684_27
  MOE2015           3D

 80 83  0  0  1  0  0  0  0  0999 V2000
   20.7560   13.8990   29.6220 C   0  0  0  0  0  0  0  0  0  0  0  0
   20.1190   13.0200   30.6940 C   0  0  0  0  0  0  0  0  0  0  0  0
   19.1140   12.5460   29.6480 C   0  0  0  0  0  0  0  0  0  0  0  0
   20.0910   13.0120   28.5430 C   0  0  0  0  0  0  0  0  0  0  0  0
   21.0240   11.9680   27.9530 C   0  0  0  0  0  0  0  0  0  0  0  0
   19.5000   13.7760   27.4800 O   0  0  0  0  0  0  0  0  0  0  0  0
   18.8640   13.0690   26.4960 C   0  0  0  0  0  0  0  0  0  0  0  0
   17.9690   13.7850   25.7990 N   0  0  0  0  0  0  0  0  0  0  0  0
   17.3270   13.1490   24.8060 C   0  0  0  0  0  0  0  0  0  0  0  0
   17.5120   11.8120   24.4860 C   0  0  0  0  0  0  0  0  0  0  0  0
   16.7160   11.1680   23.3930 C   0  0  0  0  0  0  0  0  0  0  0  0
   15.3850   10.5150   23.8210 C   0  0  0  0  0  0  0  0  0  0  0  0
   14.4830   11.4920   24.5760 C   0  0  0  0  0  0  0  0  0  0  0  0
   15.6270    9.2820   24.6920 C   0  0  0  0  0  0  0  0  0  0  0  0
   14.6500   10.0710   22.5530 C   0  0  0  0  0  0  0  0  0  0  0  0
   18.4500   11.1060   25.2290 C   0  0  0  0  0  0  0  0  0  0  0  0
   19.1720   11.7410   26.2400 C   0  0  0  0  0  0  0  0  0  0  0  0
   20.2280   11.0320   27.0360 C   0  0  3  0  0  0  0  0  0  0  0  0
   21.2070   10.2390   26.2000 N   0  3  0  0  0  0  0  0  0  0  0  0
   21.9270   11.0030   25.1170 C   0  0  0  0  0  0  0  0  0  0  0  0
   22.3680   10.0270   24.0270 C   0  0  3  0  0  0  0  0  0  0  0  0
   21.2250    9.2530   23.6430 O   0  0  0  0  0  0  0  0  0  0  0  0
   22.9790   10.7550   22.8060 C   0  0  3  0  0  0  0  0  0  0  0  0
   24.0150   11.6900   23.2220 N   0  0  0  0  0  0  0  0  0  0  0  0
   23.7770   13.0460   23.3210 C   0  0  0  0  0  0  0  0  0  0  0  0
   22.6830   13.5500   23.0930 O   0  0  0  0  0  0  0  0  0  0  0  0
   24.9560   13.8480   23.8410 C   0  0  0  0  0  0  0  0  0  0  0  0
   26.1970   13.3110   23.4160 O   0  0  0  0  0  0  0  0  0  0  0  0
   26.6040   13.8350   22.1610 C   0  0  0  0  0  0  0  0  0  0  0  0
   23.4750    9.7390   21.7570 C   0  0  0  0  0  0  0  0  0  0  0  0
   24.3510   10.3290   20.6900 C   0  0  0  0  0  0  0  0  0  0  0  0
   25.7300   10.3240   20.8730 C   0  0  0  0  0  0  0  0  0  0  0  0
   23.8420   10.9090   19.5360 C   0  0  0  0  0  0  0  0  0  0  0  0
   22.7690   10.9460   19.3600 H   0  0  0  0  0  0  0  0  0  0  0  0
   24.7100   11.4520   18.5920 C   0  0  0  0  0  0  0  0  0  0  0  0
   26.0900   11.4240   18.7910 C   0  0  0  0  0  0  0  0  0  0  0  0
   26.6080   10.8540   19.9430 C   0  0  0  0  0  0  0  0  0  0  0  0
   21.8500   13.9200   29.6300 H   0  0  0  0  0  0  0  0  0  0  0  0
   20.3930   14.9330   29.6310 H   0  0  0  0  0  0  0  0  0  0  0  0
   19.6970   13.5490   31.5520 H   0  0  0  0  0  0  0  0  0  0  0  0
   20.7790   12.2250   31.0600 H   0  0  0  0  0  0  0  0  0  0  0  0
   18.1680   13.1010   29.6660 H   0  0  0  0  0  0  0  0  0  0  0  0
   18.8840   11.4770   29.6820 H   0  0  0  0  0  0  0  0  0  0  0  0
   21.5280   11.3830   28.7320 H   0  0  0  0  0  0  0  0  0  0  0  0
   21.8150   12.4880   27.3970 H   0  0  0  0  0  0  0  0  0  0  0  0
   16.6140   13.7650   24.2630 H   0  0  0  0  0  0  0  0  0  0  0  0
   17.3500   10.4240   22.8890 H   0  0  0  0  0  0  0  0  0  0  0  0
   16.5190   11.9290   22.6240 H   0  0  0  0  0  0  0  0  0  0  0  0
   14.8980   11.7680   25.5510 H   0  0  0  0  0  0  0  0  0  0  0  0
   13.4970   11.0500   24.7680 H   0  0  0  0  0  0  0  0  0  0  0  0
   14.3210   12.4110   24.0010 H   0  0  0  0  0  0  0  0  0  0  0  0
   16.0650    9.5450   25.6610 H   0  0  0  0  0  0  0  0  0  0  0  0
   16.3010    8.5720   24.2000 H   0  0  0  0  0  0  0  0  0  0  0  0
   14.6890    8.7540   24.9010 H   0  0  0  0  0  0  0  0  0  0  0  0
   14.4270   10.9230   21.9000 H   0  0  0  0  0  0  0  0  0  0  0  0
   13.6980    9.5820   22.7900 H   0  0  0  0  0  0  0  0  0  0  0  0
   15.2500    9.3590   21.9740 H   0  0  0  0  0  0  0  0  0  0  0  0
   18.6110   10.0540   25.0070 H   0  0  0  0  0  0  0  0  0  0  0  0
   19.7220   10.2840   27.6580 H   0  0  0  0  0  0  0  0  0  0  0  0
   20.7070    9.4820   25.7030 H   0  0  0  0  0  0  0  0  0  0  0  0
   21.8880    9.7560   26.8010 H   0  0  0  0  0  0  0  0  0  0  0  0
   22.7720   11.5070   25.5930 H   0  0  0  0  0  0  0  0  0  0  0  0
   21.2340   11.7390   24.7040 H   0  0  0  0  0  0  0  0  0  0  0  0
   23.1010    9.3320   24.4530 H   0  0  0  0  0  0  0  0  0  0  0  0
   20.7620    9.6980   22.9090 H   0  0  0  0  0  0  0  0  0  0  0  0
   22.1820   11.3330   22.3180 H   0  0  0  0  0  0  0  0  0  0  0  0
   24.9630   11.3670   23.4240 H   0  0  0  0  0  0  0  0  0  0  0  0
   24.8510   14.9000   23.5520 H   0  0  0  0  0  0  0  0  0  0  0  0
   24.9270   13.7910   24.9340 H   0  0  0  0  0  0  0  0  0  0  0  0
   27.5480   13.3630   21.8810 H   0  0  0  0  0  0  0  0  0  0  0  0
   26.7700   14.9150   22.2340 H   0  0  0  0  0  0  0  0  0  0  0  0
   25.8580   13.6230   21.3890 H   0  0  0  0  0  0  0  0  0  0  0  0
   22.6160    9.2460   21.2840 H   0  0  0  0  0  0  0  0  0  0  0  0
   24.0240    8.9300   22.2570 H   0  0  0  0  0  0  0  0  0  0  0  0
   26.2170    9.8060   22.0080 F   0  0  0  0  0  0  0  0  0  0  0  0
   24.3060   11.9040   17.6880 H   0  0  0  0  0  0  0  0  0  0  0  0
   26.7490   11.8500   18.0390 H   0  0  0  0  0  0  0  0  0  0  0  0
   28.0150   10.8000   20.2000 C   0  0  0  0  0  0  0  0  0  0  0  0
   29.1840   10.7300   20.4710 C   0  0  0  0  0  0  0  0  0  0  0  0
   30.2190   10.6670   20.7120 H   0  0  0  0  0  0  0  0  0  0  0  0
  1  2  1  0  0  0  0
  1  4  1  0  0  0  0
  1 38  1  0  0  0  0
  1 39  1  0  0  0  0
  2  3  1  0  0  0  0
  2 40  1  0  0  0  0
  2 41  1  0  0  0  0
  3  4  1  0  0  0  0
  3 42  1  0  0  0  0
  3 43  1  0  0  0  0
  4  5  1  0  0  0  0
  4  6  1  0  0  0  0
  5 18  1  0  0  0  0
  5 44  1  0  0  0  0
  5 45  1  0  0  0  0
  6  7  1  0  0  0  0
  7  8  1  0  0  0  0
  7 17  2  0  0  0  0
  8  9  2  0  0  0  0
  9 10  1  0  0  0  0
  9 46  1  0  0  0  0
 10 11  1  0  0  0  0
 10 16  2  0  0  0  0
 11 12  1  0  0  0  0
 11 47  1  0  0  0  0
 11 48  1  0  0  0  0
 12 13  1  0  0  0  0
 12 14  1  0  0  0  0
 12 15  1  0  0  0  0
 13 49  1  0  0  0  0
 13 50  1  0  0  0  0
 13 51  1  0  0  0  0
 14 52  1  0  0  0  0
 14 53  1  0  0  0  0
 14 54  1  0  0  0  0
 15 55  1  0  0  0  0
 15 56  1  0  0  0  0
 15 57  1  0  0  0  0
 16 17  1  0  0  0  0
 16 58  1  0  0  0  0
 17 18  1  0  0  0  0
 18 19  1  0  0  0  0
 18 59  1  0  0  0  0
 19 20  1  0  0  0  0
 19 60  1  0  0  0  0
 19 61  1  0  0  0  0
 20 21  1  0  0  0  0
 20 62  1  0  0  0  0
 20 63  1  0  0  0  0
 21 22  1  0  0  0  0
 21 23  1  0  0  0  0
 21 64  1  0  0  0  0
 22 65  1  0  0  0  0
 23 24  1  0  0  0  0
 23 30  1  0  0  0  0
 23 66  1  0  0  0  0
 24 25  1  0  0  0  0
 24 67  1  0  0  0  0
 25 26  2  0  0  0  0
 25 27  1  0  0  0  0
 27 28  1  0  0  0  0
 27 68  1  0  0  0  0
 27 69  1  0  0  0  0
 28 29  1  0  0  0  0
 29 70  1  0  0  0  0
 29 71  1  0  0  0  0
 29 72  1  0  0  0  0
 30 31  1  0  0  0  0
 30 73  1  0  0  0  0
 30 74  1  0  0  0  0
 31 32  1  0  0  0  0
 31 33  2  0  0  0  0
 32 37  2  0  0  0  0
 32 75  1  0  0  0  0
 33 34  1  0  0  0  0
 33 35  1  0  0  0  0
 35 36  2  0  0  0  0
 35 76  1  0  0  0  0
 36 37  1  0  0  0  0
 36 77  1  0  0  0  0
 37 78  1  0  0  0  0
 78 79  3  0  0  0  0
 79 80  1  0  0  0  0
M  CHG  1  19   1
M  END
>  <PARENT_CMPD_ID>
22468684_27

>  <STANDARD_TYPE>
IC50

>  <RELATION>
=

>  <STANDARD_VALUE>
11

>  <STANDARD_UNITS>
nM

>  <COMPOUND_KEY>
27

>  <PUBMED_ID>
22468684

>  <JOURNAL>
J.Med.Chem.

>  <YEAR>
2012

>  <VOLUME>
55

>  <FIRST_PAGE>
9025

>  <Company>
Amgen

>  <idx>
427

>  <Model>
Valid

>  <target>
7.9586072

>  <des_pred_mlr>
7.4808798

>  <RF_Canvas>
8.0371132

>  <DNN_Canvas>
7.3528867

>  <pred_CoMFA>
8.2729998

>  <pred_COMSIA>
8.1476002

>  <pred_abm5>
8.5387344

>  <pred_ff8>
7.7650623

>  <pred_gau6>
8.7462473

>  <CID>
BACE_427

>  <active>
1

>  <des_class_bayes>
1

>  <maacs_class_bayes>
1

>  <radial_class_bayes>
1

>  <dend_class_bayes>
1

>  <molprint_class_bayes>
1

>  <RF_canvas>
1

>  <DNN_canvas>
1

$$$$
22468684_35
  MOE2015           3D

 83 87  0  0  1  0  0  0  0  0999 V2000
   20.7540   13.9050   29.6260 C   0  0  0  0  0  0  0  0  0  0  0  0
   20.1190   13.0260   30.6980 C   0  0  0  0  0  0  0  0  0  0  0  0
   19.1120   12.5520   29.6530 C   0  0  0  0  0  0  0  0  0  0  0  0
   20.0890   13.0180   28.5480 C   0  0  0  0  0  0  0  0  0  0  0  0
   21.0220   11.9750   27.9580 C   0  0  0  0  0  0  0  0  0  0  0  0
   19.4970   13.7820   27.4850 O   0  0  0  0  0  0  0  0  0  0  0  0
   18.8660   13.0750   26.4970 C   0  0  0  0  0  0  0  0  0  0  0  0
   17.9730   13.7900   25.7970 N   0  0  0  0  0  0  0  0  0  0  0  0
   17.3320   13.1520   24.8040 C   0  0  0  0  0  0  0  0  0  0  0  0
   17.5170   11.8160   24.4870 C   0  0  0  0  0  0  0  0  0  0  0  0
   16.7210   11.1690   23.3940 C   0  0  0  0  0  0  0  0  0  0  0  0
   15.3900   10.5180   23.8210 C   0  0  0  0  0  0  0  0  0  0  0  0
   14.4870   11.4960   24.5740 C   0  0  0  0  0  0  0  0  0  0  0  0
   15.6300    9.2860   24.6930 C   0  0  0  0  0  0  0  0  0  0  0  0
   14.6550   10.0730   22.5520 C   0  0  0  0  0  0  0  0  0  0  0  0
   18.4520   11.1090   25.2330 C   0  0  0  0  0  0  0  0  0  0  0  0
   19.1720   11.7460   26.2450 C   0  0  0  0  0  0  0  0  0  0  0  0
   20.2250   11.0370   27.0450 C   0  0  3  0  0  0  0  0  0  0  0  0
   21.2020   10.2370   26.2160 N   0  3  0  0  0  0  0  0  0  0  0  0
   21.9290   10.9950   25.1380 C   0  0  0  0  0  0  0  0  0  0  0  0
   22.3640   10.0150   24.0530 C   0  0  3  0  0  0  0  0  0  0  0  0
   21.2190    9.2480   23.6620 O   0  0  0  0  0  0  0  0  0  0  0  0
   23.0000   10.7290   22.8410 C   0  0  3  0  0  0  0  0  0  0  0  0
   24.0380   11.6610   23.2740 N   0  0  0  0  0  0  0  0  0  0  0  0
   23.8050   13.0170   23.3650 C   0  0  0  0  0  0  0  0  0  0  0  0
   22.7170   13.5240   23.1170 O   0  0  0  0  0  0  0  0  0  0  0  0
   24.9810   13.8240   23.8610 C   0  0  0  0  0  0  0  0  0  0  0  0
   26.0760   13.8960   22.8120 C   0  0  0  0  0  0  0  0  0  0  0  0
   26.8760   14.5640   23.1430 H   0  0  0  0  0  0  0  0  0  0  0  0
   25.6850   14.2700   21.8590 H   0  0  0  0  0  0  0  0  0  0  0  0
   26.5160   12.9110   22.6280 H   0  0  0  0  0  0  0  0  0  0  0  0
   23.5200    9.6890   21.8270 C   0  0  0  0  0  0  0  0  0  0  0  0
   24.3450   10.2870   20.7250 C   0  0  0  0  0  0  0  0  0  0  0  0
   25.7320   10.3300   20.8680 C   0  0  0  0  0  0  0  0  0  0  0  0
   23.7630   10.8480   19.5970 C   0  0  0  0  0  0  0  0  0  0  0  0
   24.5610   11.4460   18.6320 C   0  0  0  0  0  0  0  0  0  0  0  0
   25.9410   11.5020   18.7970 C   0  0  0  0  0  0  0  0  0  0  0  0
   26.5480   10.9430   19.9210 C   0  0  0  0  0  0  0  0  0  0  0  0
   27.9970   11.0650   20.1160 C   0  0  0  0  0  0  0  0  0  0  0  0
   28.7260   12.0590   19.6530 N   0  0  0  0  0  0  0  0  0  0  0  0
   30.0380   11.9010   20.0350 C   0  0  0  0  0  0  0  0  0  0  0  0
   30.3110   10.7800   20.7820 C   0  0  0  0  0  0  0  0  0  0  0  0
   28.8830    9.8840   21.0060 S   0  0  0  0  0  0  0  0  0  0  0  0
   21.8480   13.9280   29.6330 H   0  0  0  0  0  0  0  0  0  0  0  0
   20.3900   14.9400   29.6360 H   0  0  0  0  0  0  0  0  0  0  0  0
   19.6970   13.5550   31.5570 H   0  0  0  0  0  0  0  0  0  0  0  0
   20.7800   12.2320   31.0640 H   0  0  0  0  0  0  0  0  0  0  0  0
   18.1670   13.1070   29.6730 H   0  0  0  0  0  0  0  0  0  0  0  0
   18.8830   11.4830   29.6880 H   0  0  0  0  0  0  0  0  0  0  0  0
   21.5270   11.3910   28.7380 H   0  0  0  0  0  0  0  0  0  0  0  0
   21.8110   12.4950   27.4020 H   0  0  0  0  0  0  0  0  0  0  0  0
   16.6210   13.7690   24.2590 H   0  0  0  0  0  0  0  0  0  0  0  0
   17.3560   10.4250   22.8920 H   0  0  0  0  0  0  0  0  0  0  0  0
   16.5260   11.9290   22.6230 H   0  0  0  0  0  0  0  0  0  0  0  0
   14.9020   11.7730   25.5490 H   0  0  0  0  0  0  0  0  0  0  0  0
   13.5010   11.0550   24.7670 H   0  0  0  0  0  0  0  0  0  0  0  0
   14.3260   12.4140   23.9990 H   0  0  0  0  0  0  0  0  0  0  0  0
   16.0670    9.5490   25.6620 H   0  0  0  0  0  0  0  0  0  0  0  0
   16.3040    8.5740   24.2020 H   0  0  0  0  0  0  0  0  0  0  0  0
   14.6920    8.7580   24.9010 H   0  0  0  0  0  0  0  0  0  0  0  0
   14.4330   10.9250   21.8990 H   0  0  0  0  0  0  0  0  0  0  0  0
   13.7020    9.5850   22.7890 H   0  0  0  0  0  0  0  0  0  0  0  0
   15.2540    9.3600   21.9750 H   0  0  0  0  0  0  0  0  0  0  0  0
   18.6120   10.0560   25.0120 H   0  0  0  0  0  0  0  0  0  0  0  0
   19.7140   10.2940   27.6700 H   0  0  0  0  0  0  0  0  0  0  0  0
   20.6950    9.4840   25.7180 H   0  0  0  0  0  0  0  0  0  0  0  0
   21.8720    9.7480   26.8230 H   0  0  0  0  0  0  0  0  0  0  0  0
   22.7760   11.4940   25.6160 H   0  0  0  0  0  0  0  0  0  0  0  0
   21.2430   11.7360   24.7200 H   0  0  0  0  0  0  0  0  0  0  0  0
   23.0850    9.3120   24.4900 H   0  0  0  0  0  0  0  0  0  0  0  0
   20.7980    9.6690   22.8870 H   0  0  0  0  0  0  0  0  0  0  0  0
   22.2180   11.3060   22.3290 H   0  0  0  0  0  0  0  0  0  0  0  0
   24.9610   11.3060   23.5040 H   0  0  0  0  0  0  0  0  0  0  0  0
   24.6310   14.8330   24.1040 H   0  0  0  0  0  0  0  0  0  0  0  0
   25.3640   13.3740   24.7830 H   0  0  0  0  0  0  0  0  0  0  0  0
   22.6780    9.1370   21.3880 H   0  0  0  0  0  0  0  0  0  0  0  0
   24.1220    8.9320   22.3480 H   0  0  0  0  0  0  0  0  0  0  0  0
   26.1700    9.9000   21.7660 H   0  0  0  0  0  0  0  0  0  0  0  0
   22.6840   10.8370   19.4640 H   0  0  0  0  0  0  0  0  0  0  0  0
   24.1050   11.8910   17.7510 H   0  0  0  0  0  0  0  0  0  0  0  0
   26.5460   11.9980   18.0400 H   0  0  0  0  0  0  0  0  0  0  0  0
   30.7670   12.6440   19.7390 H   0  0  0  0  0  0  0  0  0  0  0  0
   31.2600   10.4580   21.1860 H   0  0  0  0  0  0  0  0  0  0  0  0
  1  2  1  0  0  0  0
  1  4  1  0  0  0  0
  1 44  1  0  0  0  0
  1 45  1  0  0  0  0
  2  3  1  0  0  0  0
  2 46  1  0  0  0  0
  2 47  1  0  0  0  0
  3  4  1  0  0  0  0
  3 48  1  0  0  0  0
  3 49  1  0  0  0  0
  4  5  1  0  0  0  0
  4  6  1  0  0  0  0
  5 18  1  0  0  0  0
  5 50  1  0  0  0  0
  5 51  1  0  0  0  0
  6  7  1  0  0  0  0
  7  8  1  0  0  0  0
  7 17  2  0  0  0  0
  8  9  2  0  0  0  0
  9 10  1  0  0  0  0
  9 52  1  0  0  0  0
 10 11  1  0  0  0  0
 10 16  2  0  0  0  0
 11 12  1  0  0  0  0
 11 53  1  0  0  0  0
 11 54  1  0  0  0  0
 12 13  1  0  0  0  0
 12 14  1  0  0  0  0
 12 15  1  0  0  0  0
 13 55  1  0  0  0  0
 13 56  1  0  0  0  0
 13 57  1  0  0  0  0
 14 58  1  0  0  0  0
 14 59  1  0  0  0  0
 14 60  1  0  0  0  0
 15 61  1  0  0  0  0
 15 62  1  0  0  0  0
 15 63  1  0  0  0  0
 16 17  1  0  0  0  0
 16 64  1  0  0  0  0
 17 18  1  0  0  0  0
 18 19  1  0  0  0  0
 18 65  1  0  0  0  0
 19 20  1  0  0  0  0
 19 66  1  0  0  0  0
 19 67  1  0  0  0  0
 20 21  1  0  0  0  0
 20 68  1  0  0  0  0
 20 69  1  0  0  0  0
 21 22  1  0  0  0  0
 21 23  1  0  0  0  0
 21 70  1  0  0  0  0
 22 71  1  0  0  0  0
 23 24  1  0  0  0  0
 23 32  1  0  0  0  0
 23 72  1  0  0  0  0
 24 25  1  0  0  0  0
 24 73  1  0  0  0  0
 25 26  2  0  0  0  0
 25 27  1  0  0  0  0
 27 28  1  0  0  0  0
 27 74  1  0  0  0  0
 27 75  1  0  0  0  0
 28 29  1  0  0  0  0
 28 30  1  0  0  0  0
 28 31  1  0  0  0  0
 32 33  1  0  0  0  0
 32 76  1  0  0  0  0
 32 77  1  0  0  0  0
 33 34  1  0  0  0  0
 33 35  2  0  0  0  0
 34 38  2  0  0  0  0
 34 78  1  0  0  0  0
 35 36  1  0  0  0  0
 35 79  1  0  0  0  0
 36 37  2  0  0  0  0
 36 80  1  0  0  0  0
 37 38  1  0  0  0  0
 37 81  1  0  0  0  0
 38 39  1  0  0  0  0
 39 40  2  0  0  0  0
 39 43  1  0  0  0  0
 40 41  1  0  0  0  0
 41 42  2  0  0  0  0
 41 82  1  0  0  0  0
 42 43  1  0  0  0  0
 42 83  1  0  0  0  0
M  CHG  1  19   1
M  END
>  <PARENT_CMPD_ID>
22468684_35

>  <STANDARD_TYPE>
IC50

>  <RELATION>
=

>  <STANDARD_VALUE>
11

>  <STANDARD_UNITS>
nM

>  <COMPOUND_KEY>
35

>  <PUBMED_ID>
22468684

>  <JOURNAL>
J.Med.Chem.

>  <YEAR>
2012

>  <VOLUME>
55

>  <FIRST_PAGE>
9025

>  <Company>
Amgen

>  <idx>
428

>  <Model>
Valid

>  <target>
7.9586072

>  <des_pred_mlr>
7.6704202

>  <RF_Canvas>
7.8830433

>  <DNN_Canvas>
7.9775147

>  <pred_CoMFA>
8.7255001

>  <pred_COMSIA>
8.5562

>  <pred_abm5>
8.7762871

>  <pred_ff8>
8.4367075

>  <pred_gau6>
8.6326351

>  <CID>
BACE_428

>  <active>
1

>  <des_class_bayes>
1

>  <maacs_class_bayes>
1

>  <radial_class_bayes>
1

>  <dend_class_bayes>
1

>  <molprint_class_bayes>
1

>  <RF_canvas>
1

>  <DNN_canvas>
1

$$$$
CHEMBL555916
  MOE2015           3D

 97101  0  0  1  0  0  0  0  0999 V2000
   15.6540    9.2250   24.6530 C   0  0  0  0  0  0  0  0  0  0  0  0
   16.0780   10.4330   24.0340 O   0  0  0  0  0  0  0  0  0  0  0  0
   16.8530   11.2230   24.8370 C   0  0  0  0  0  0  0  0  0  0  0  0
   16.5930   12.5860   24.8180 C   0  0  0  0  0  0  0  0  0  0  0  0
   17.3700   13.4530   25.5730 C   0  0  0  0  0  0  0  0  0  0  0  0
   18.4380   12.9650   26.3190 C   0  0  0  0  0  0  0  0  0  0  0  0
   18.7370   11.6020   26.3220 C   0  0  0  0  0  0  0  0  0  0  0  0
   19.9420   11.0830   27.0610 C   0  0  0  0  0  0  0  0  0  0  0  0
   20.8750   10.3100   26.1830 N   0  3  0  0  0  0  0  0  0  0  0  0
   21.5140   11.1230   25.0920 C   0  0  0  0  0  0  0  0  0  0  0  0
   22.3250   10.1800   24.2020 C   0  0  2  0  0  0  0  0  0  0  0  0
   23.4360    9.7010   24.9630 O   0  0  0  0  0  0  0  0  0  0  0  0
   22.8230   10.9490   22.9650 C   0  0  3  0  0  0  0  0  0  0  0  0
   23.3700   10.0240   21.8640 C   0  0  0  0  0  0  0  0  0  0  0  0
   23.9180   10.7850   20.6840 C   0  0  0  0  0  0  0  0  0  0  0  0
   25.2390   10.5980   20.2800 C   0  0  0  0  0  0  0  0  0  0  0  0
   25.7610   11.3440   19.2350 C   0  0  0  0  0  0  0  0  0  0  0  0
   27.0280   11.1500   18.8680 F   0  0  0  0  0  0  0  0  0  0  0  0
   24.9980   12.2820   18.5730 C   0  0  0  0  0  0  0  0  0  0  0  0
   23.6870   12.4570   18.9620 C   0  0  0  0  0  0  0  0  0  0  0  0
   22.9310   13.3630   18.3420 F   0  0  0  0  0  0  0  0  0  0  0  0
   23.1370   11.7150   19.9950 C   0  0  0  0  0  0  0  0  0  0  0  0
   23.8410   11.9140   23.3600 N   0  0  0  0  0  0  0  0  0  0  0  0
   23.5710   13.2560   23.4820 C   0  0  0  0  0  0  0  0  0  0  0  0
   22.4390   13.7160   23.4330 O   0  0  0  0  0  0  0  0  0  0  0  0
   24.7640   14.1040   23.6700 C   0  0  0  0  0  0  0  0  0  0  0  0
   25.8760   13.9060   22.8520 C   0  0  0  0  0  0  0  0  0  0  0  0
   27.0100   14.7060   22.9910 C   0  0  0  0  0  0  0  0  0  0  0  0
   27.0320   15.6880   23.9670 C   0  0  0  0  0  0  0  0  0  0  0  0
   25.9080   15.8790   24.7680 C   0  0  0  0  0  0  0  0  0  0  0  0
   24.7570   15.1160   24.6160 C   0  0  0  0  0  0  0  0  0  0  0  0
   25.9740   16.8910   25.8300 C   0  0  0  0  0  0  0  0  0  0  0  0
   26.7550   16.8150   26.8680 N   0  0  0  0  0  0  0  0  0  0  0  0
   27.4550   15.5980   26.8680 O   0  0  0  0  0  0  0  0  0  0  0  0
   28.5430   15.6660   27.7860 C   0  0  0  0  0  0  0  0  0  0  0  0
   29.2820   14.3570   27.6890 C   0  0  0  0  0  0  0  0  0  0  0  0
   29.9930   14.0320   26.5230 C   0  0  0  0  0  0  0  0  0  0  0  0
   30.6600   12.8090   26.4150 C   0  0  0  0  0  0  0  0  0  0  0  0
   30.6240   11.9000   27.4700 C   0  0  0  0  0  0  0  0  0  0  0  0
   29.9180   12.2110   28.6300 C   0  0  0  0  0  0  0  0  0  0  0  0
   29.2480   13.4320   28.7400 C   0  0  0  0  0  0  0  0  0  0  0  0
   25.0780   18.0800   25.6760 C   0  0  0  0  0  0  0  0  0  0  0  0
   28.0750   14.6700   22.0030 N   0  0  0  0  0  0  0  0  0  0  0  0
   28.7630   13.3990   21.8390 C   0  0  0  0  0  0  0  0  0  0  0  0
   29.5600   13.1080   20.7400 C   0  0  0  0  0  0  0  0  0  0  0  0
   30.1620   11.8610   20.5910 C   0  0  0  0  0  0  0  0  0  0  0  0
   30.0180   10.8900   21.5630 C   0  0  0  0  0  0  0  0  0  0  0  0
   29.3300   11.1920   22.7180 C   0  0  0  0  0  0  0  0  0  0  0  0
   28.7500   12.4500   22.8700 C   0  0  0  0  0  0  0  0  0  0  0  0
   27.6340   15.5770   20.5790 S   0  0  0  0  0  0  0  0  0  0  0  0
   27.4730   14.6990   19.4390 O   0  0  0  0  0  0  0  0  0  0  0  0
   26.5890   16.5290   20.9130 O   0  0  0  0  0  0  0  0  0  0  0  0
   29.1000   16.5490   20.3620 C   0  0  0  0  0  0  0  0  0  0  0  0
   17.9170   10.7330   25.5910 C   0  0  0  0  0  0  0  0  0  0  0  0
   15.3350    9.3830   25.6890 H   0  0  0  0  0  0  0  0  0  0  0  0
   16.4420    8.4670   24.6010 H   0  0  0  0  0  0  0  0  0  0  0  0
   14.7930    8.8470   24.0930 H   0  0  0  0  0  0  0  0  0  0  0  0
   15.7740   12.9740   24.2170 H   0  0  0  0  0  0  0  0  0  0  0  0
   17.1510   14.5190   25.5660 H   0  0  0  0  0  0  0  0  0  0  0  0
   19.0460   13.6720   26.8810 H   0  0  0  0  0  0  0  0  0  0  0  0
   19.6260   10.4010   27.8570 H   0  0  0  0  0  0  0  0  0  0  0  0
   20.5290   11.8900   27.5140 H   0  0  0  0  0  0  0  0  0  0  0  0
   20.3870    9.4970   25.7910 H   0  0  0  0  0  0  0  0  0  0  0  0
   21.6520    9.9270   26.7430 H   0  0  0  0  0  0  0  0  0  0  0  0
   20.7140   11.6060   24.5240 H   0  0  0  0  0  0  0  0  0  0  0  0
   22.1360   11.8680   25.5980 H   0  0  0  0  0  0  0  0  0  0  0  0
   21.7100    9.3240   23.8990 H   0  0  0  0  0  0  0  0  0  0  0  0
   23.8560    8.9720   24.4700 H   0  0  0  0  0  0  0  0  0  0  0  0
   21.9670   11.4930   22.5450 H   0  0  0  0  0  0  0  0  0  0  0  0
   24.1580    9.3830   22.2790 H   0  0  0  0  0  0  0  0  0  0  0  0
   22.5790    9.3520   21.5100 H   0  0  0  0  0  0  0  0  0  0  0  0
   25.8880    9.8820   20.7780 H   0  0  0  0  0  0  0  0  0  0  0  0
   25.4230   12.8720   17.7690 H   0  0  0  0  0  0  0  0  0  0  0  0
   22.0990   11.8940   20.2630 H   0  0  0  0  0  0  0  0  0  0  0  0
   24.7770   11.5690   23.5500 H   0  0  0  0  0  0  0  0  0  0  0  0
   25.8360   13.1760   22.0460 H   0  0  0  0  0  0  0  0  0  0  0  0
   27.9040   16.3250   24.0830 H   0  0  0  0  0  0  0  0  0  0  0  0
   23.8870   15.2800   25.2460 H   0  0  0  0  0  0  0  0  0  0  0  0
   29.2120   16.4940   27.5210 H   0  0  0  0  0  0  0  0  0  0  0  0
   28.1600   15.8330   28.7990 H   0  0  0  0  0  0  0  0  0  0  0  0
   30.0320   14.7330   25.6920 H   0  0  0  0  0  0  0  0  0  0  0  0
   31.2100   12.5700   25.5090 H   0  0  0  0  0  0  0  0  0  0  0  0
   31.1530   10.9530   27.3950 H   0  0  0  0  0  0  0  0  0  0  0  0
   29.8950   11.5040   29.4550 H   0  0  0  0  0  0  0  0  0  0  0  0
   28.7020   13.6560   29.6540 H   0  0  0  0  0  0  0  0  0  0  0  0
   24.5870   18.0970   24.6990 H   0  0  0  0  0  0  0  0  0  0  0  0
   25.6680   18.9950   25.7840 H   0  0  0  0  0  0  0  0  0  0  0  0
   24.3130   18.0580   26.4580 H   0  0  0  0  0  0  0  0  0  0  0  0
   29.7020   13.8020   19.9210 H   0  0  0  0  0  0  0  0  0  0  0  0
   30.7360   11.6450   19.6940 H   0  0  0  0  0  0  0  0  0  0  0  0
   30.4770    9.9140   21.4340 H   0  0  0  0  0  0  0  0  0  0  0  0
   29.2540   10.4600   23.5180 H   0  0  0  0  0  0  0  0  0  0  0  0
   28.2590   12.6510   23.8180 H   0  0  0  0  0  0  0  0  0  0  0  0
   29.9650   15.9180   20.1700 H   0  0  0  0  0  0  0  0  0  0  0  0
   29.2570   17.1520   21.2590 H   0  0  0  0  0  0  0  0  0  0  0  0
   28.9380   17.2090   19.5060 H   0  0  0  0  0  0  0  0  0  0  0  0
   18.1260    9.6680   25.5820 H   0  0  0  0  0  0  0  0  0  0  0  0
  1  2  1  0  0  0  0
  1 55  1  0  0  0  0
  1 56  1  0  0  0  0
  1 57  1  0  0  0  0
  2  3  1  0  0  0  0
  3  4  1  0  0  0  0
  3 54  2  0  0  0  0
  4  5  2  0  0  0  0
  4 58  1  0  0  0  0
  5  6  1  0  0  0  0
  5 59  1  0  0  0  0
  6  7  2  0  0  0  0
  6 60  1  0  0  0  0
  7  8  1  0  0  0  0
  7 54  1  0  0  0  0
  8  9  1  0  0  0  0
  8 61  1  0  0  0  0
  8 62  1  0  0  0  0
  9 10  1  0  0  0  0
  9 63  1  0  0  0  0
  9 64  1  0  0  0  0
 10 11  1  0  0  0  0
 10 65  1  0  0  0  0
 10 66  1  0  0  0  0
 11 12  1  0  0  0  0
 11 13  1  0  0  0  0
 11 67  1  0  0  0  0
 12 68  1  0  0  0  0
 13 14  1  0  0  0  0
 13 23  1  0  0  0  0
 13 69  1  0  0  0  0
 14 15  1  0  0  0  0
 14 70  1  0  0  0  0
 14 71  1  0  0  0  0
 15 16  2  0  0  0  0
 15 22  1  0  0  0  0
 16 17  1  0  0  0  0
 16 72  1  0  0  0  0
 17 18  1  0  0  0  0
 17 19  2  0  0  0  0
 19 20  1  0  0  0  0
 19 73  1  0  0  0  0
 20 21  1  0  0  0  0
 20 22  2  0  0  0  0
 22 74  1  0  0  0  0
 23 24  1  0  0  0  0
 23 75  1  0  0  0  0
 24 25  2  0  0  0  0
 24 26  1  0  0  0  0
 26 27  2  0  0  0  0
 26 31  1  0  0  0  0
 27 28  1  0  0  0  0
 27 76  1  0  0  0  0
 28 29  2  0  0  0  0
 28 43  1  0  0  0  0
 29 30  1  0  0  0  0
 29 77  1  0  0  0  0
 30 31  2  0  0  0  0
 30 32  1  0  0  0  0
 31 78  1  0  0  0  0
 32 33  2  0  0  0  0
 32 42  1  0  0  0  0
 33 34  1  0  0  0  0
 34 35  1  0  0  0  0
 35 36  1  0  0  0  0
 35 79  1  0  0  0  0
 35 80  1  0  0  0  0
 36 37  1  0  0  0  0
 36 41  2  0  0  0  0
 37 38  2  0  0  0  0
 37 81  1  0  0  0  0
 38 39  1  0  0  0  0
 38 82  1  0  0  0  0
 39 40  2  0  0  0  0
 39 83  1  0  0  0  0
 40 41  1  0  0  0  0
 40 84  1  0  0  0  0
 41 85  1  0  0  0  0
 42 86  1  0  0  0  0
 42 87  1  0  0  0  0
 42 88  1  0  0  0  0
 43 44  1  0  0  0  0
 43 50  1  0  0  0  0
 44 45  1  0  0  0  0
 44 49  2  0  0  0  0
 45 46  2  0  0  0  0
 45 89  1  0  0  0  0
 46 47  1  0  0  0  0
 46 90  1  0  0  0  0
 47 48  2  0  0  0  0
 47 91  1  0  0  0  0
 48 49  1  0  0  0  0
 48 92  1  0  0  0  0
 49 93  1  0  0  0  0
 50 51  2  0  0  0  0
 50 52  2  0  0  0  0
 50 53  1  0  0  0  0
 53 94  1  0  0  0  0
 53 95  1  0  0  0  0
 53 96  1  0  0  0  0
 54 97  1  0  0  0  0
M  CHG  1   9   1
M  END
>  <PARENT_CMPD_ID>
CHEMBL555916

>  <STANDARD_TYPE>
IC50

>  <RELATION>
=

>  <STANDARD_VALUE>
12

>  <STANDARD_UNITS>
nM

>  <COMPOUND_KEY>
6i

>  <PUBMED_ID>
19375914

>  <JOURNAL>
Bioorg. Med. Chem. Lett.

>  <YEAR>
2009

>  <VOLUME>
19

>  <FIRST_PAGE>
2654

>  <Company>
BMS

>  <idx>
429

>  <Model>
Valid

>  <target>
7.9208188

>  <des_pred_mlr>
8.6665401

>  <RF_Canvas>
7.568934

>  <DNN_Canvas>
8.1535826

>  <pred_CoMFA>
7.4308

>  <pred_COMSIA>
8.4319

>  <pred_abm5>
7.1018043

>  <pred_ff8>
4.7916188

>  <pred_gau6>
8.0584726

>  <CID>
BACE_429

>  <active>
1

>  <des_class_bayes>
1

>  <maacs_class_bayes>
0

>  <radial_class_bayes>
1

>  <dend_class_bayes>
1

>  <molprint_class_bayes>
1

>  <RF_canvas>
1

>  <DNN_canvas>
1

$$$$
CHEMBL558542
  MOE2015           3D

 98101  0  0  1  0  0  0  0  0999 V2000
   25.4420   19.2100   21.6860 C   0  0  0  0  0  0  0  0  0  0  0  0
   24.9690   18.8700   23.0910 C   0  0  0  0  0  0  0  0  0  0  0  0
   26.1440   18.7860   24.0660 C   0  0  0  0  0  0  0  0  0  0  0  0
   25.7300   18.4010   25.4230 N   0  0  0  0  0  0  0  0  0  0  0  0
   25.6380   19.4620   26.4270 C   0  0  0  0  0  0  0  0  0  0  0  0
   24.2960   20.1890   26.3850 C   0  0  0  0  0  0  0  0  0  0  0  0
   24.1770   21.2020   27.5130 C   0  0  0  0  0  0  0  0  0  0  0  0
   25.3870   17.1140   25.8170 C   0  0  0  0  0  0  0  0  0  0  0  0
   24.9170   16.8170   26.9140 O   0  0  0  0  0  0  0  0  0  0  0  0
   25.5740   16.0110   24.8720 C   0  0  0  0  0  0  0  0  0  0  0  0
   24.4530   15.2750   24.5000 C   0  0  0  0  0  0  0  0  0  0  0  0
   24.6200   14.1330   23.7330 C   0  0  0  0  0  0  0  0  0  0  0  0
   25.8810   13.7620   23.3000 C   0  0  0  0  0  0  0  0  0  0  0  0
   26.9860   14.4690   23.7400 C   0  0  0  0  0  0  0  0  0  0  0  0
   26.8550   15.6000   24.5240 C   0  0  0  0  0  0  0  0  0  0  0  0
   28.5500   13.7330   23.4320 S   0  0  0  0  0  0  0  0  0  0  0  0
   28.3650   12.3230   23.7200 O   0  0  0  0  0  0  0  0  0  0  0  0
   29.5620   14.4880   24.1280 O   0  0  0  0  0  0  0  0  0  0  0  0
   28.8850   13.8820   21.7210 C   0  0  0  0  0  0  0  0  0  0  0  0
   28.3530   14.9450   20.9940 C   0  0  0  0  0  0  0  0  0  0  0  0
   28.5940   15.0160   19.6340 C   0  0  0  0  0  0  0  0  0  0  0  0
   29.3540   14.0250   19.0040 C   0  0  0  0  0  0  0  0  0  0  0  0
   29.5160   14.2100   17.6560 O   0  0  0  0  0  0  0  0  0  0  0  0
   30.2730   13.2290   16.9560 C   0  0  0  0  0  0  0  0  0  0  0  0
   29.8770   12.9610   19.7530 C   0  0  0  0  0  0  0  0  0  0  0  0
   29.6420   12.8850   21.1190 C   0  0  0  0  0  0  0  0  0  0  0  0
   23.4680   13.2620   23.4500 C   0  0  0  0  0  0  0  0  0  0  0  0
   22.3320   13.7070   23.3700 O   0  0  0  0  0  0  0  0  0  0  0  0
   23.7630   11.9230   23.3500 N   0  0  0  0  0  0  0  0  0  0  0  0
   22.7810   10.9340   22.9420 C   0  0  3  0  0  0  0  0  0  0  0  0
   23.3650   10.0210   21.8520 C   0  0  0  0  0  0  0  0  0  0  0  0
   23.9130   10.7910   20.6780 C   0  0  0  0  0  0  0  0  0  0  0  0
   25.2360   10.6080   20.2760 C   0  0  0  0  0  0  0  0  0  0  0  0
   25.7560   11.3550   19.2310 C   0  0  0  0  0  0  0  0  0  0  0  0
   27.0270   11.1740   18.8730 F   0  0  0  0  0  0  0  0  0  0  0  0
   24.9890   12.2860   18.5630 C   0  0  0  0  0  0  0  0  0  0  0  0
   23.6770   12.4590   18.9520 C   0  0  0  0  0  0  0  0  0  0  0  0
   22.9170   13.3560   18.3230 F   0  0  0  0  0  0  0  0  0  0  0  0
   23.1310   11.7190   19.9890 C   0  0  0  0  0  0  0  0  0  0  0  0
   22.3140   10.1850   24.1960 C   0  0  3  0  0  0  0  0  0  0  0  0
   23.4240    9.6910   24.9480 O   0  0  0  0  0  0  0  0  0  0  0  0
   21.5190   11.1250   25.0990 C   0  0  0  0  0  0  0  0  0  0  0  0
   20.8900   10.3170   26.1890 N   0  3  0  0  0  0  0  0  0  0  0  0
   19.9560   11.0920   27.0630 C   0  0  0  0  0  0  0  0  0  0  0  0
   18.7450   11.6030   26.3260 C   0  0  0  0  0  0  0  0  0  0  0  0
   18.4400   12.9650   26.3230 C   0  0  0  0  0  0  0  0  0  0  0  0
   17.3720   13.4510   25.5780 C   0  0  0  0  0  0  0  0  0  0  0  0
   16.5950   12.5820   24.8240 C   0  0  0  0  0  0  0  0  0  0  0  0
   16.8590   11.2190   24.8430 C   0  0  0  0  0  0  0  0  0  0  0  0
   16.0830   10.4290   24.0420 O   0  0  0  0  0  0  0  0  0  0  0  0
   15.6570    9.2230   24.6640 C   0  0  0  0  0  0  0  0  0  0  0  0
   17.9260   10.7320   25.5960 C   0  0  0  0  0  0  0  0  0  0  0  0
   24.5890   19.2730   21.0040 H   0  0  0  0  0  0  0  0  0  0  0  0
   26.1240   18.4430   21.3060 H   0  0  0  0  0  0  0  0  0  0  0  0
   25.9620   20.1730   21.6700 H   0  0  0  0  0  0  0  0  0  0  0  0
   24.4210   17.9230   23.0600 H   0  0  0  0  0  0  0  0  0  0  0  0
   24.2560   19.6310   23.4220 H   0  0  0  0  0  0  0  0  0  0  0  0
   26.6600   19.7520   24.1150 H   0  0  0  0  0  0  0  0  0  0  0  0
   26.8790   18.0670   23.6950 H   0  0  0  0  0  0  0  0  0  0  0  0
   25.7800   19.0240   27.4220 H   0  0  0  0  0  0  0  0  0  0  0  0
   26.4670   20.1630   26.2760 H   0  0  0  0  0  0  0  0  0  0  0  0
   24.1800   20.7100   25.4290 H   0  0  0  0  0  0  0  0  0  0  0  0
   23.4740   19.4680   26.4580 H   0  0  0  0  0  0  0  0  0  0  0  0
   24.9690   21.9550   27.4480 H   0  0  0  0  0  0  0  0  0  0  0  0
   24.2470   20.7130   28.4890 H   0  0  0  0  0  0  0  0  0  0  0  0
   23.2130   21.7180   27.4600 H   0  0  0  0  0  0  0  0  0  0  0  0
   23.4640   15.5650   24.8510 H   0  0  0  0  0  0  0  0  0  0  0  0
   26.0210   12.8880   22.6670 H   0  0  0  0  0  0  0  0  0  0  0  0
   27.7270   16.1200   24.9150 H   0  0  0  0  0  0  0  0  0  0  0  0
   27.7720   15.7340   21.4620 H   0  0  0  0  0  0  0  0  0  0  0  0
   28.1940   15.8420   19.0510 H   0  0  0  0  0  0  0  0  0  0  0  0
   30.3030   13.5200   15.9020 H   0  0  0  0  0  0  0  0  0  0  0  0
   29.7950   12.2450   17.0170 H   0  0  0  0  0  0  0  0  0  0  0  0
   31.3040   13.1920   17.3220 H   0  0  0  0  0  0  0  0  0  0  0  0
   30.4680   12.1760   19.2910 H   0  0  0  0  0  0  0  0  0  0  0  0
   30.0470   12.0560   21.6940 H   0  0  0  0  0  0  0  0  0  0  0  0
   24.6850   11.5760   23.5930 H   0  0  0  0  0  0  0  0  0  0  0  0
   21.9120   11.4510   22.5160 H   0  0  0  0  0  0  0  0  0  0  0  0
   24.1610    9.3990   22.2790 H   0  0  0  0  0  0  0  0  0  0  0  0
   22.5930    9.3290   21.4900 H   0  0  0  0  0  0  0  0  0  0  0  0
   25.8840    9.8910   20.7740 H   0  0  0  0  0  0  0  0  0  0  0  0
   25.4080   12.8660   17.7480 H   0  0  0  0  0  0  0  0  0  0  0  0
   22.0940   11.8990   20.2600 H   0  0  0  0  0  0  0  0  0  0  0  0
   21.6900    9.3300   23.9060 H   0  0  0  0  0  0  0  0  0  0  0  0
   23.8830    9.0080   24.4260 H   0  0  0  0  0  0  0  0  0  0  0  0
   20.7180   11.6160   24.5400 H   0  0  0  0  0  0  0  0  0  0  0  0
   22.1510   11.8650   25.6000 H   0  0  0  0  0  0  0  0  0  0  0  0
   20.4020    9.5050   25.7970 H   0  0  0  0  0  0  0  0  0  0  0  0
   21.6580    9.9280   26.7560 H   0  0  0  0  0  0  0  0  0  0  0  0
   19.6430   10.4120   27.8630 H   0  0  0  0  0  0  0  0  0  0  0  0
   20.5400   11.9030   27.5110 H   0  0  0  0  0  0  0  0  0  0  0  0
   19.0460   13.6730   26.8860 H   0  0  0  0  0  0  0  0  0  0  0  0
   17.1540   14.5170   25.5700 H   0  0  0  0  0  0  0  0  0  0  0  0
   15.7750   12.9680   24.2240 H   0  0  0  0  0  0  0  0  0  0  0  0
   14.7970    8.8430   24.1030 H   0  0  0  0  0  0  0  0  0  0  0  0
   15.3370    9.3850   25.6990 H   0  0  0  0  0  0  0  0  0  0  0  0
   16.4450    8.4650   24.6160 H   0  0  0  0  0  0  0  0  0  0  0  0
   18.1380    9.6670   25.5850 H   0  0  0  0  0  0  0  0  0  0  0  0
  1  2  1  0  0  0  0
  1 53  1  0  0  0  0
  1 54  1  0  0  0  0
  1 55  1  0  0  0  0
  2  3  1  0  0  0  0
  2 56  1  0  0  0  0
  2 57  1  0  0  0  0
  3  4  1  0  0  0  0
  3 58  1  0  0  0  0
  3 59  1  0  0  0  0
  4  5  1  0  0  0  0
  4  8  1  0  0  0  0
  5  6  1  0  0  0  0
  5 60  1  0  0  0  0
  5 61  1  0  0  0  0
  6  7  1  0  0  0  0
  6 62  1  0  0  0  0
  6 63  1  0  0  0  0
  7 64  1  0  0  0  0
  7 65  1  0  0  0  0
  7 66  1  0  0  0  0
  8  9  2  0  0  0  0
  8 10  1  0  0  0  0
 10 11  1  0  0  0  0
 10 15  2  0  0  0  0
 11 12  2  0  0  0  0
 11 67  1  0  0  0  0
 12 13  1  0  0  0  0
 12 27  1  0  0  0  0
 13 14  2  0  0  0  0
 13 68  1  0  0  0  0
 14 15  1  0  0  0  0
 14 16  1  0  0  0  0
 15 69  1  0  0  0  0
 16 17  2  0  0  0  0
 16 18  2  0  0  0  0
 16 19  1  0  0  0  0
 19 20  1  0  0  0  0
 19 26  2  0  0  0  0
 20 21  2  0  0  0  0
 20 70  1  0  0  0  0
 21 22  1  0  0  0  0
 21 71  1  0  0  0  0
 22 23  1  0  0  0  0
 22 25  2  0  0  0  0
 23 24  1  0  0  0  0
 24 72  1  0  0  0  0
 24 73  1  0  0  0  0
 24 74  1  0  0  0  0
 25 26  1  0  0  0  0
 25 75  1  0  0  0  0
 26 76  1  0  0  0  0
 27 28  2  0  0  0  0
 27 29  1  0  0  0  0
 29 30  1  0  0  0  0
 29 77  1  0  0  0  0
 30 31  1  0  0  0  0
 30 40  1  0  0  0  0
 30 78  1  0  0  0  0
 31 32  1  0  0  0  0
 31 79  1  0  0  0  0
 31 80  1  0  0  0  0
 32 33  1  0  0  0  0
 32 39  2  0  0  0  0
 33 34  2  0  0  0  0
 33 81  1  0  0  0  0
 34 35  1  0  0  0  0
 34 36  1  0  0  0  0
 36 37  2  0  0  0  0
 36 82  1  0  0  0  0
 37 38  1  0  0  0  0
 37 39  1  0  0  0  0
 39 83  1  0  0  0  0
 40 41  1  0  0  0  0
 40 42  1  0  0  0  0
 40 84  1  0  0  0  0
 41 85  1  0  0  0  0
 42 43  1  0  0  0  0
 42 86  1  0  0  0  0
 42 87  1  0  0  0  0
 43 44  1  0  0  0  0
 43 88  1  0  0  0  0
 43 89  1  0  0  0  0
 44 45  1  0  0  0  0
 44 90  1  0  0  0  0
 44 91  1  0  0  0  0
 45 46  1  0  0  0  0
 45 52  2  0  0  0  0
 46 47  2  0  0  0  0
 46 92  1  0  0  0  0
 47 48  1  0  0  0  0
 47 93  1  0  0  0  0
 48 49  2  0  0  0  0
 48 94  1  0  0  0  0
 49 50  1  0  0  0  0
 49 52  1  0  0  0  0
 50 51  1  0  0  0  0
 51 95  1  0  0  0  0
 51 96  1  0  0  0  0
 51 97  1  0  0  0  0
 52 98  1  0  0  0  0
M  CHG  1  43   1
M  END
>  <PARENT_CMPD_ID>
CHEMBL558542

>  <STANDARD_TYPE>
IC50

>  <RELATION>
=

>  <STANDARD_VALUE>
12

>  <STANDARD_UNITS>
nM

>  <COMPOUND_KEY>
7h

>  <PUBMED_ID>
19375914

>  <JOURNAL>
Bioorg. Med. Chem. Lett.

>  <YEAR>
2009

>  <VOLUME>
19

>  <FIRST_PAGE>
2654

>  <Company>
BMS

>  <idx>
430

>  <Model>
Valid

>  <target>
7.9208188

>  <des_pred_mlr>
8.5496798

>  <RF_Canvas>
7.8059306

>  <DNN_Canvas>
7.843514

>  <pred_CoMFA>
6.585

>  <pred_COMSIA>
8.7612

>  <pred_abm5>
7.1344171

>  <pred_ff8>
6.2332788

>  <pred_gau6>
7.3150139

>  <CID>
BACE_430

>  <active>
1

>  <des_class_bayes>
1

>  <maacs_class_bayes>
0

>  <radial_class_bayes>
0

>  <dend_class_bayes>
0

>  <molprint_class_bayes>
1

>  <RF_canvas>
1

>  <DNN_canvas>
1

$$$$
CHEMBL1270526
  MOE2015           3D

 48 50  0  0  1  0  0  0  0  0999 V2000
   29.2220    9.4810   23.0110 C   0  0  0  0  0  0  0  0  0  0  0  0
   29.4460    9.0570   21.6740 O   0  0  0  0  0  0  0  0  0  0  0  0
   29.2380   10.1060   20.7290 C   0  0  0  0  0  0  0  0  0  0  0  0
   27.8150   10.2920   20.4410 C   0  0  0  0  0  0  0  0  0  0  0  0
   26.6540   10.4750   20.1990 C   0  0  0  0  0  0  0  0  0  0  0  0
   25.2800   10.7320   19.9130 C   0  0  0  0  0  0  0  0  0  0  0  0
   24.2990   10.4480   20.8600 C   0  0  0  0  0  0  0  0  0  0  0  0
   22.9420   10.7290   20.6170 C   0  0  0  0  0  0  0  0  0  0  0  0
   22.6100   11.3170   19.3900 C   0  0  0  0  0  0  0  0  0  0  0  0
   23.5830   11.5850   18.4360 C   0  0  0  0  0  0  0  0  0  0  0  0
   24.9060   11.2930   18.7050 C   0  0  0  0  0  0  0  0  0  0  0  0
   25.8210   11.5780   17.7760 F   0  0  0  0  0  0  0  0  0  0  0  0
   21.8800   10.4800   21.7090 C   0  0  1  0  0  0  0  0  0  0  0  0
   22.2450    9.3010   22.5630 N   0  0  0  0  0  0  0  0  0  0  0  0
   22.4710    9.7570   23.7520 C   0  0  0  0  0  0  0  0  0  0  0  0
   22.8320    8.9460   24.7690 N   0  0  0  0  0  0  0  0  0  0  0  0
   22.3320   11.0870   23.9120 N   0  0  0  0  0  0  0  0  0  0  0  0
   22.5440   11.8480   25.1170 C   0  0  0  0  0  0  0  0  0  0  0  0
   21.9510   11.6320   22.7230 C   0  0  0  0  0  0  0  0  0  0  0  0
   21.7520   12.8160   22.4920 O   0  0  0  0  0  0  0  0  0  0  0  0
   20.4730   10.2420   21.1330 C   0  0  0  0  0  0  0  0  0  0  0  0
   20.1670    8.9990   20.5610 C   0  0  0  0  0  0  0  0  0  0  0  0
   18.9280    8.7470   19.9730 C   0  0  0  0  0  0  0  0  0  0  0  0
   17.9560    9.7370   19.9470 C   0  0  0  0  0  0  0  0  0  0  0  0
   16.7190    9.6210   19.3840 O   0  0  0  0  0  0  0  0  0  0  0  0
   16.1770    8.3140   19.3560 C   0  0  0  0  0  0  0  0  0  0  0  0
   16.6290    7.6780   18.2520 F   0  0  0  0  0  0  0  0  0  0  0  0
   14.8360    8.4330   19.2070 F   0  0  0  0  0  0  0  0  0  0  0  0
   18.2520   10.9820   20.4900 C   0  0  0  0  0  0  0  0  0  0  0  0
   19.4890   11.2310   21.0800 C   0  0  0  0  0  0  0  0  0  0  0  0
   29.4100    8.6330   23.6750 H   0  0  0  0  0  0  0  0  0  0  0  0
   28.1860    9.8060   23.1530 H   0  0  0  0  0  0  0  0  0  0  0  0
   29.9100   10.2880   23.2790 H   0  0  0  0  0  0  0  0  0  0  0  0
   29.7060   11.0350   21.0770 H   0  0  0  0  0  0  0  0  0  0  0  0
   29.7550    9.8120   19.8100 H   0  0  0  0  0  0  0  0  0  0  0  0
   24.6030   10.0080   21.8090 H   0  0  0  0  0  0  0  0  0  0  0  0
   21.5840   11.5870   19.1530 H   0  0  0  0  0  0  0  0  0  0  0  0
   23.3130   12.0370   17.4860 H   0  0  0  0  0  0  0  0  0  0  0  0
   22.9230    7.9550   24.5860 H   0  0  0  0  0  0  0  0  0  0  0  0
   23.0180    9.2770   25.7040 H   0  0  0  0  0  0  0  0  0  0  0  0
   23.5740   11.6970   25.4540 H   0  0  0  0  0  0  0  0  0  0  0  0
   21.8710   11.4740   25.8940 H   0  0  0  0  0  0  0  0  0  0  0  0
   22.3620   12.9130   24.9530 H   0  0  0  0  0  0  0  0  0  0  0  0
   20.9160    8.2080   20.5590 H   0  0  0  0  0  0  0  0  0  0  0  0
   18.7660    7.7740   19.5180 H   0  0  0  0  0  0  0  0  0  0  0  0
   16.3780    7.7240   20.2580 H   0  0  0  0  0  0  0  0  0  0  0  0
   17.5090   11.7760   20.4550 H   0  0  0  0  0  0  0  0  0  0  0  0
   19.6640   12.2300   21.4740 H   0  0  0  0  0  0  0  0  0  0  0  0
  1  2  1  0  0  0  0
  1 31  1  0  0  0  0
  1 32  1  0  0  0  0
  1 33  1  0  0  0  0
  2  3  1  0  0  0  0
  3  4  1  0  0  0  0
  3 34  1  0  0  0  0
  3 35  1  0  0  0  0
  4  5  3  0  0  0  0
  5  6  1  0  0  0  0
  6  7  2  0  0  0  0
  6 11  1  0  0  0  0
  7  8  1  0  0  0  0
  7 36  1  0  0  0  0
  8  9  2  0  0  0  0
  8 13  1  0  0  0  0
  9 10  1  0  0  0  0
  9 37  1  0  0  0  0
 10 11  2  0  0  0  0
 10 38  1  0  0  0  0
 11 12  1  0  0  0  0
 13 14  1  0  0  0  0
 13 19  1  0  0  0  0
 13 21  1  0  0  0  0
 14 15  2  0  0  0  0
 15 16  1  0  0  0  0
 15 17  1  0  0  0  0
 16 39  1  0  0  0  0
 16 40  1  0  0  0  0
 17 18  1  0  0  0  0
 17 19  1  0  0  0  0
 18 41  1  0  0  0  0
 18 42  1  0  0  0  0
 18 43  1  0  0  0  0
 19 20  2  0  0  0  0
 21 22  1  0  0  0  0
 21 30  2  0  0  0  0
 22 23  2  0  0  0  0
 22 44  1  0  0  0  0
 23 24  1  0  0  0  0
 23 45  1  0  0  0  0
 24 25  1  0  0  0  0
 24 29  2  0  0  0  0
 25 26  1  0  0  0  0
 26 27  1  0  0  0  0
 26 28  1  0  0  0  0
 26 46  1  0  0  0  0
 29 30  1  0  0  0  0
 29 47  1  0  0  0  0
 30 48  1  0  0  0  0
M  END
>  <PARENT_CMPD_ID>
CHEMBL1270526

>  <STANDARD_TYPE>
IC50

>  <RELATION>
=

>  <STANDARD_VALUE>
12

>  <STANDARD_UNITS>
nM

>  <COMPOUND_KEY>
86

>  <PUBMED_ID>
20880704

>  <JOURNAL>
Bioorg. Med. Chem. Lett.

>  <YEAR>
2010

>  <VOLUME>
20

>  <FIRST_PAGE>
6597

>  <Company>
Pfizer

>  <idx>
431

>  <Model>
Valid

>  <target>
7.9208188

>  <des_pred_mlr>
6.4351902

>  <RF_Canvas>
7.3841405

>  <DNN_Canvas>
7.2012334

>  <pred_CoMFA>
7.0907001

>  <pred_COMSIA>
6.6511998

>  <pred_abm5>
7.4837847

>  <pred_ff8>
6.6347742

>  <pred_gau6>
7.3767853

>  <CID>
BACE_431

>  <active>
1

>  <des_class_bayes>
1

>  <maacs_class_bayes>
1

>  <radial_class_bayes>
1

>  <dend_class_bayes>
1

>  <molprint_class_bayes>
1

>  <RF_canvas>
1

>  <DNN_canvas>
1

$$$$
21078556_10o
  MOE2015           3D

 86 90  0  0  1  0  0  0  0  0999 V2000
   24.3850   16.3000   24.9330 C   0  0  0  0  0  0  0  0  0  0  0  0
   22.9400   13.7650   18.4450 F   0  0  0  0  0  0  0  0  0  0  0  0
   26.9420   14.4610   23.3220 N   0  0  0  0  0  0  0  0  0  0  0  0
   25.9010   13.6140   23.0300 C   0  0  0  0  0  0  0  0  0  0  0  0
   26.6450   10.9400   18.9170 F   0  0  0  0  0  0  0  0  0  0  0  0
   24.7420   14.0780   23.6110 C   0  0  0  0  0  0  0  0  0  0  0  0
   25.0830   15.3170   24.2210 C   0  0  0  0  0  0  0  0  0  0  0  0
   27.1710   16.5810   24.4580 N   0  0  0  0  0  0  0  0  0  0  0  0
   26.4480   15.5220   24.0390 C   0  0  0  0  0  0  0  0  0  0  0  0
   26.4450   17.4920   25.1320 C   0  0  0  0  0  0  0  0  0  0  0  0
   25.0900   17.4040   25.3940 C   0  0  0  0  0  0  0  0  0  0  0  0
   24.5860   18.1900   25.9460 H   0  0  0  0  0  0  0  0  0  0  0  0
   28.2770   14.2320   23.0030 C   0  0  0  0  0  0  0  0  0  0  0  0
   28.4810   13.8660   21.6930 N   0  0  0  0  0  0  0  0  0  0  0  0
   27.6840   14.2420   20.5400 C   0  0  0  0  0  0  0  0  0  0  0  0
   28.5020   13.8100   19.3390 C   0  0  0  0  0  0  0  0  0  0  0  0
   28.4750   14.5470   18.5300 H   0  0  0  0  0  0  0  0  0  0  0  0
   28.1190   12.8690   18.9320 H   0  0  0  0  0  0  0  0  0  0  0  0
   26.7090   13.7550   20.5460 H   0  0  0  0  0  0  0  0  0  0  0  0
   27.5330   15.3270   20.5640 H   0  0  0  0  0  0  0  0  0  0  0  0
   29.6610   13.1130   21.3050 C   0  0  1  0  0  0  0  0  0  0  0  0
   29.3990   11.6040   21.3540 C   0  0  0  0  0  0  0  0  0  0  0  0
   29.1310   11.2340   22.7040 O   0  0  0  0  0  0  0  0  0  0  0  0
   29.1100   14.3190   23.8880 O   0  0  0  0  0  0  0  0  0  0  0  0
   23.4550   13.3950   23.5480 C   0  0  0  0  0  0  0  0  0  0  0  0
   23.5570   12.0310   23.3530 N   0  0  0  0  0  0  0  0  0  0  0  0
   22.4300   11.1810   22.9940 C   0  0  2  0  0  0  0  0  0  0  0  0
   21.9180   10.3850   24.2120 C   0  0  1  0  0  0  0  0  0  0  0  0
   21.3460   11.3310   25.2690 C   0  0  0  0  0  0  0  0  0  0  0  0
   20.6960   10.5340   26.3610 N   0  3  0  0  0  0  0  0  0  0  0  0
   19.6040   11.2450   27.0980 C   0  0  0  0  0  0  0  0  0  0  0  0
   18.4810   11.7000   26.2140 C   0  0  0  0  0  0  0  0  0  0  0  0
   22.3760   13.9670   23.6660 O   0  0  0  0  0  0  0  0  0  0  0  0
   22.8200   10.2520   21.8230 C   0  0  0  0  0  0  0  0  0  0  0  0
   23.4940   10.9780   20.6880 C   0  0  0  0  0  0  0  0  0  0  0  0
   24.7750   10.6080   20.2870 C   0  0  0  0  0  0  0  0  0  0  0  0
   25.4130   11.3030   19.2750 C   0  0  0  0  0  0  0  0  0  0  0  0
   24.8090   12.3690   18.6420 C   0  0  0  0  0  0  0  0  0  0  0  0
   23.5390   12.7300   19.0350 C   0  0  0  0  0  0  0  0  0  0  0  0
   22.8730   12.0440   20.0380 C   0  0  0  0  0  0  0  0  0  0  0  0
   20.9050    9.4540   23.8140 O   0  0  0  0  0  0  0  0  0  0  0  0
   17.6980   10.7620   25.5460 C   0  0  0  0  0  0  0  0  0  0  0  0
   16.7220   11.1610   24.6390 C   0  0  0  0  0  0  0  0  0  0  0  0
   16.4890   12.5140   24.4300 C   0  0  0  0  0  0  0  0  0  0  0  0
   17.2460   13.4590   25.1120 C   0  0  0  0  0  0  0  0  0  0  0  0
   18.2400   13.0550   25.9950 C   0  0  0  0  0  0  0  0  0  0  0  0
   16.0310   10.1400   24.0600 O   0  0  0  0  0  0  0  0  0  0  0  0
   15.5470   10.3920   22.7490 C   0  0  0  0  0  0  0  0  0  0  0  0
   23.3180   16.2100   25.1170 H   0  0  0  0  0  0  0  0  0  0  0  0
   26.0990   12.7100   22.4680 H   0  0  0  0  0  0  0  0  0  0  0  0
   27.0130   18.3520   25.4800 H   0  0  0  0  0  0  0  0  0  0  0  0
   30.4960   13.3580   21.9720 H   0  0  0  0  0  0  0  0  0  0  0  0
   29.9060   13.6010   19.8920 C   0  0  0  0  0  0  0  0  0  0  0  0
   30.5010   12.9130   19.2840 H   0  0  0  0  0  0  0  0  0  0  0  0
   30.4290   14.5650   19.9160 H   0  0  0  0  0  0  0  0  0  0  0  0
   30.2840   11.0760   20.9850 H   0  0  0  0  0  0  0  0  0  0  0  0
   28.5390   11.3270   20.7340 H   0  0  0  0  0  0  0  0  0  0  0  0
   28.8800    9.8450   22.8580 C   0  0  0  0  0  0  0  0  0  0  0  0
   28.4110    9.7140   23.8390 H   0  0  0  0  0  0  0  0  0  0  0  0
   30.1630    9.0500   22.8180 C   0  0  0  0  0  0  0  0  0  0  0  0
   29.9770    8.0070   23.0910 H   0  0  0  0  0  0  0  0  0  0  0  0
   30.9020    9.4680   23.5090 H   0  0  0  0  0  0  0  0  0  0  0  0
   30.6130    9.0580   21.8210 H   0  0  0  0  0  0  0  0  0  0  0  0
   28.1640    9.4930   22.1070 H   0  0  0  0  0  0  0  0  0  0  0  0
   24.4700   11.5980   23.4370 H   0  0  0  0  0  0  0  0  0  0  0  0
   21.6140   11.8250   22.6400 H   0  0  0  0  0  0  0  0  0  0  0  0
   22.7350    9.7990   24.6520 H   0  0  0  0  0  0  0  0  0  0  0  0
   20.5860   11.9680   24.8100 H   0  0  0  0  0  0  0  0  0  0  0  0
   22.1090   11.9550   25.7440 H   0  0  0  0  0  0  0  0  0  0  0  0
   21.4080   10.1910   27.0180 H   0  0  0  0  0  0  0  0  0  0  0  0
   20.3030    9.6920   25.9040 H   0  0  0  0  0  0  0  0  0  0  0  0
   20.0770   12.0840   27.6210 H   0  0  0  0  0  0  0  0  0  0  0  0
   19.2320   10.5450   27.8540 H   0  0  0  0  0  0  0  0  0  0  0  0
   21.9340    9.7400   21.4280 H   0  0  0  0  0  0  0  0  0  0  0  0
   23.4880    9.4660   22.2000 H   0  0  0  0  0  0  0  0  0  0  0  0
   25.2970    9.7790   20.7570 H   0  0  0  0  0  0  0  0  0  0  0  0
   25.3200   12.9090   17.8540 H   0  0  0  0  0  0  0  0  0  0  0  0
   21.8720   12.3670   20.3100 H   0  0  0  0  0  0  0  0  0  0  0  0
   20.2640    9.8980   23.2250 H   0  0  0  0  0  0  0  0  0  0  0  0
   17.8440    9.6960   25.7100 H   0  0  0  0  0  0  0  0  0  0  0  0
   15.7090   12.8570   23.7570 H   0  0  0  0  0  0  0  0  0  0  0  0
   17.0620   14.5180   24.9490 H   0  0  0  0  0  0  0  0  0  0  0  0
   18.8300   13.8180   26.5000 H   0  0  0  0  0  0  0  0  0  0  0  0
   15.2510    9.4350   22.3100 H   0  0  0  0  0  0  0  0  0  0  0  0
   16.3200   10.8310   22.1090 H   0  0  0  0  0  0  0  0  0  0  0  0
   14.6590   11.0320   22.7820 H   0  0  0  0  0  0  0  0  0  0  0  0
  1  7  1  0  0  0  0
  1 11  2  0  0  0  0
  1 49  1  0  0  0  0
  2 39  1  0  0  0  0
  3  4  1  0  0  0  0
  3  9  1  0  0  0  0
  3 13  1  0  0  0  0
  4  6  2  0  0  0  0
  4 50  1  0  0  0  0
  5 37  1  0  0  0  0
  6  7  1  0  0  0  0
  6 25  1  0  0  0  0
  7  9  2  0  0  0  0
  8  9  1  0  0  0  0
  8 10  2  0  0  0  0
 10 11  1  0  0  0  0
 10 51  1  0  0  0  0
 11 12  1  0  0  0  0
 13 14  1  0  0  0  0
 13 24  2  0  0  0  0
 14 15  1  0  0  0  0
 14 21  1  0  0  0  0
 15 16  1  0  0  0  0
 15 19  1  0  0  0  0
 15 20  1  0  0  0  0
 16 17  1  0  0  0  0
 16 18  1  0  0  0  0
 16 53  1  0  0  0  0
 21 22  1  0  0  0  0
 21 52  1  0  0  0  0
 21 53  1  0  0  0  0
 22 23  1  0  0  0  0
 22 56  1  0  0  0  0
 22 57  1  0  0  0  0
 23 58  1  0  0  0  0
 25 26  1  0  0  0  0
 25 33  2  0  0  0  0
 26 27  1  0  0  0  0
 26 65  1  0  0  0  0
 27 28  1  0  0  0  0
 27 34  1  0  0  0  0
 27 66  1  0  0  0  0
 28 29  1  0  0  0  0
 28 41  1  0  0  0  0
 28 67  1  0  0  0  0
 29 30  1  0  0  0  0
 29 68  1  0  0  0  0
 29 69  1  0  0  0  0
 30 31  1  0  0  0  0
 30 70  1  0  0  0  0
 30 71  1  0  0  0  0
 31 32  1  0  0  0  0
 31 72  1  0  0  0  0
 31 73  1  0  0  0  0
 32 42  2  0  0  0  0
 32 46  1  0  0  0  0
 34 35  1  0  0  0  0
 34 74  1  0  0  0  0
 34 75  1  0  0  0  0
 35 36  2  0  0  0  0
 35 40  1  0  0  0  0
 36 37  1  0  0  0  0
 36 76  1  0  0  0  0
 37 38  2  0  0  0  0
 38 39  1  0  0  0  0
 38 77  1  0  0  0  0
 39 40  2  0  0  0  0
 40 78  1  0  0  0  0
 41 79  1  0  0  0  0
 42 43  1  0  0  0  0
 42 80  1  0  0  0  0
 43 44  2  0  0  0  0
 43 47  1  0  0  0  0
 44 45  1  0  0  0  0
 44 81  1  0  0  0  0
 45 46  2  0  0  0  0
 45 82  1  0  0  0  0
 46 83  1  0  0  0  0
 47 48  1  0  0  0  0
 48 84  1  0  0  0  0
 48 85  1  0  0  0  0
 48 86  1  0  0  0  0
 53 54  1  0  0  0  0
 53 55  1  0  0  0  0
 58 59  1  0  0  0  0
 58 60  1  0  0  0  0
 58 64  1  0  0  0  0
 60 61  1  0  0  0  0
 60 62  1  0  0  0  0
 60 63  1  0  0  0  0
M  CHG  1  30   1
M  END
>  <PARENT_CMPD_ID>
21078556_10o

>  <STANDARD_TYPE>
IC50

>  <RELATION>
=

>  <STANDARD_VALUE>
12

>  <STANDARD_UNITS>
nM

>  <COMPOUND_KEY>
10o

>  <PUBMED_ID>
21078556

>  <JOURNAL>
Bioorg.Med.Chem.Lett.

>  <YEAR>
2011

>  <VOLUME>
21

>  <FIRST_PAGE>
537

>  <Company>
BMS

>  <idx>
432

>  <Model>
Valid

>  <target>
7.9208188

>  <des_pred_mlr>
7.8480701

>  <RF_Canvas>
7.3896341

>  <DNN_Canvas>
7.5884619

>  <pred_CoMFA>
8.1122999

>  <pred_COMSIA>
8.7347002

>  <pred_abm5>
8.1038542

>  <pred_ff8>
6.765604

>  <pred_gau6>
8.1904936

>  <CID>
BACE_432

>  <active>
1

>  <des_class_bayes>
1

>  <maacs_class_bayes>
1

>  <radial_class_bayes>
1

>  <dend_class_bayes>
1

>  <molprint_class_bayes>
1

>  <RF_canvas>
1

>  <DNN_canvas>
1

$$$$
23735744_9
  MOE2015           3D

 45 47  0  0  1  0  0  0  0  0999 V2000
   32.2020    8.5690   24.1800 Cl  0  0  0  0  0  0  0  0  0  0  0  0
   31.0420    9.1490   23.0660 C   0  0  0  0  0  0  0  0  0  0  0  0
   29.7530    8.6470   23.0640 C   0  0  0  0  0  0  0  0  0  0  0  0
   28.7850    9.0570   22.2140 N   0  0  0  0  0  0  0  0  0  0  0  0
   31.3730   10.1290   22.1460 C   0  0  0  0  0  0  0  0  0  0  0  0
   30.4100   10.5740   21.2500 C   0  0  0  0  0  0  0  0  0  0  0  0
   29.1420   10.0170   21.3220 C   0  0  0  0  0  0  0  0  0  0  0  0
   28.0580   10.5020   20.4270 C   0  0  0  0  0  0  0  0  0  0  0  0
   28.3260   11.1600   19.4320 O   0  0  0  0  0  0  0  0  0  0  0  0
   26.8010   10.1670   20.8780 N   0  0  0  0  0  0  0  0  0  0  0  0
   25.5660   10.5690   20.3430 C   0  0  0  0  0  0  0  0  0  0  0  0
   25.4200   11.2760   19.1560 C   0  0  0  0  0  0  0  0  0  0  0  0
   24.1620   11.6870   18.7390 C   0  0  0  0  0  0  0  0  0  0  0  0
   23.0490   11.4060   19.5130 C   0  0  0  0  0  0  0  0  0  0  0  0
   21.8640   11.8470   19.0880 F   0  0  0  0  0  0  0  0  0  0  0  0
   24.4240   10.2680   21.0880 C   0  0  0  0  0  0  0  0  0  0  0  0
   23.1450   10.6930   20.7020 C   0  0  0  0  0  0  0  0  0  0  0  0
   21.9150   10.3820   21.5560 C   0  0  3  0  0  0  0  0  0  0  0  0
   20.9120    9.5740   20.7150 C   0  0  0  0  0  0  0  0  0  0  0  0
   21.2170   11.6460   22.0780 C   0  0  0  0  0  0  0  0  0  0  0  0
   22.0670   12.3320   23.1250 C   0  0  0  0  0  0  0  0  0  0  0  0
   21.4790   13.1410   23.5760 H   0  0  0  0  0  0  0  0  0  0  0  0
   22.9520   12.7920   22.6700 H   0  0  0  0  0  0  0  0  0  0  0  0
   22.4830   11.3740   24.1290 N   0  0  0  0  0  0  0  0  0  0  0  0
   22.8710   11.9360   25.4000 C   0  0  0  0  0  0  0  0  0  0  0  0
   22.8150   13.0300   25.4070 H   0  0  0  0  0  0  0  0  0  0  0  0
   23.9050   11.6680   25.6420 H   0  0  0  0  0  0  0  0  0  0  0  0
   22.2150   11.5700   26.1980 H   0  0  0  0  0  0  0  0  0  0  0  0
   22.5170   10.0360   23.8270 C   0  0  0  0  0  0  0  0  0  0  0  0
   22.2490    9.5000   22.6830 N   0  0  0  0  0  0  0  0  0  0  0  0
   22.9370    9.1800   24.7840 N   0  0  0  0  0  0  0  0  0  0  0  0
   29.4490    7.8740   23.7650 H   0  0  0  0  0  0  0  0  0  0  0  0
   32.3740   10.5500   22.1160 H   0  0  0  0  0  0  0  0  0  0  0  0
   30.6430   11.3450   20.5220 H   0  0  0  0  0  0  0  0  0  0  0  0
   26.7930    9.5810   21.7130 H   0  0  0  0  0  0  0  0  0  0  0  0
   26.2720   11.5250   18.5320 H   0  0  0  0  0  0  0  0  0  0  0  0
   24.0450   12.2430   17.8130 H   0  0  0  0  0  0  0  0  0  0  0  0
   24.5420    9.7040   22.0110 H   0  0  0  0  0  0  0  0  0  0  0  0
   20.4880   10.1520   19.8880 H   0  0  0  0  0  0  0  0  0  0  0  0
   20.0710    9.2310   21.3300 H   0  0  0  0  0  0  0  0  0  0  0  0
   21.3800    8.6780   20.2890 H   0  0  0  0  0  0  0  0  0  0  0  0
   20.2580   11.3700   22.5390 H   0  0  0  0  0  0  0  0  0  0  0  0
   20.9790   12.3520   21.2750 H   0  0  0  0  0  0  0  0  0  0  0  0
   22.9820    8.2000   24.5420 H   0  0  0  0  0  0  0  0  0  0  0  0
   23.2010    9.4640   25.7120 H   0  0  0  0  0  0  0  0  0  0  0  0
  1  2  1  0  0  0  0
  2  3  2  0  0  0  0
  2  5  1  0  0  0  0
  3  4  1  0  0  0  0
  3 32  1  0  0  0  0
  4  7  2  0  0  0  0
  5  6  2  0  0  0  0
  5 33  1  0  0  0  0
  6  7  1  0  0  0  0
  6 34  1  0  0  0  0
  7  8  1  0  0  0  0
  8  9  2  0  0  0  0
  8 10  1  0  0  0  0
 10 11  1  0  0  0  0
 10 35  1  0  0  0  0
 11 12  1  0  0  0  0
 11 16  2  0  0  0  0
 12 13  2  0  0  0  0
 12 36  1  0  0  0  0
 13 14  1  0  0  0  0
 13 37  1  0  0  0  0
 14 15  1  0  0  0  0
 14 17  2  0  0  0  0
 16 17  1  0  0  0  0
 16 38  1  0  0  0  0
 17 18  1  0  0  0  0
 18 19  1  0  0  0  0
 18 20  1  0  0  0  0
 18 30  1  0  0  0  0
 19 39  1  0  0  0  0
 19 40  1  0  0  0  0
 19 41  1  0  0  0  0
 20 21  1  0  0  0  0
 20 42  1  0  0  0  0
 20 43  1  0  0  0  0
 21 22  1  0  0  0  0
 21 23  1  0  0  0  0
 21 24  1  0  0  0  0
 24 25  1  0  0  0  0
 24 29  1  0  0  0  0
 25 26  1  0  0  0  0
 25 27  1  0  0  0  0
 25 28  1  0  0  0  0
 29 30  2  0  0  0  0
 29 31  1  0  0  0  0
 31 44  1  0  0  0  0
 31 45  1  0  0  0  0
M  END
>  <PARENT_CMPD_ID>
23735744_9

>  <STANDARD_TYPE>
IC50

>  <RELATION>
=

>  <STANDARD_VALUE>
0.012

>  <STANDARD_UNITS>
uM

>  <COMPOUND_KEY>
9

>  <PUBMED_ID>
23735744

>  <JOURNAL>
Bioorg.Med.Chem.Lett.

>  <YEAR>
2013

>  <VOLUME>
23

>  <FIRST_PAGE>
4239

>  <Company>
Roche

>  <idx>
433

>  <Model>
Valid

>  <target>
7.9208188

>  <des_pred_mlr>
6.5720201

>  <RF_Canvas>
6.7526879

>  <DNN_Canvas>
7.0955043

>  <pred_CoMFA>
7.8408999

>  <pred_COMSIA>
6.5194998

>  <pred_abm5>
7.368022

>  <pred_ff8>
6.5655704

>  <pred_gau6>
7.2336617

>  <CID>
BACE_433

>  <active>
1

>  <des_class_bayes>
0

>  <maacs_class_bayes>
0

>  <radial_class_bayes>
0

>  <dend_class_bayes>
1

>  <molprint_class_bayes>
0

>  <RF_canvas>
0

>  <DNN_canvas>
0

$$$$
23981898_17h
  MOE2015           3D

 76 78  0  0  1  0  0  0  0  0999 V2000
   28.6320    9.0440   21.0080 F   0  0  0  0  0  0  0  0  0  0  0  0
   29.2820   10.2130   20.8620 C   0  0  0  0  0  0  0  0  0  0  0  0
   30.0810   10.3570   21.9350 F   0  0  0  0  0  0  0  0  0  0  0  0
   30.0730   10.1130   19.7820 F   0  0  0  0  0  0  0  0  0  0  0  0
   28.3070   11.3690   20.7500 C   0  0  3  0  0  0  0  0  0  0  0  0
   27.5260   11.1970   19.5530 O   0  0  0  0  0  0  0  0  0  0  0  0
   26.1650   11.2280   19.7240 C   0  0  0  0  0  0  0  0  0  0  0  0
   25.4370   12.0350   18.8450 C   0  0  0  0  0  0  0  0  0  0  0  0
   24.0500   12.0550   18.9790 C   0  0  0  0  0  0  0  0  0  0  0  0
   23.3940   11.3130   19.9530 C   0  0  0  0  0  0  0  0  0  0  0  0
   24.1200   10.5080   20.8290 C   0  0  0  0  0  0  0  0  0  0  0  0
   25.5090   10.4470   20.6820 C   0  0  0  0  0  0  0  0  0  0  0  0
   23.4360    9.7800   21.9630 C   0  0  0  0  0  0  0  0  0  0  0  0
   22.8650   10.7400   23.0250 C   0  0  3  0  0  0  0  0  0  0  0  0
   22.1680   10.0030   24.1910 C   0  0  3  0  0  0  0  0  0  0  0  0
   21.5100   10.9770   25.1960 C   0  0  3  0  0  0  0  0  0  0  0  0
   22.4940   11.9570   25.8150 C   0  0  0  0  0  0  0  0  0  0  0  0
   23.2520   13.0080   24.5560 S   0  0  0  0  0  0  0  0  0  0  0  0
   23.9580   11.6550   23.5820 C   0  0  0  0  0  0  0  0  0  0  0  0
   22.1540   13.6120   23.7350 O   0  0  0  0  0  0  0  0  0  0  0  0
   20.8790   10.1270   26.2870 N   0  3  0  0  0  0  0  0  0  0  0  0
   19.8580   10.7750   27.1670 C   0  0  0  0  0  0  0  0  0  0  0  0
   18.7230   11.4350   26.4420 C   0  0  0  0  0  0  0  0  0  0  0  0
   17.7840   10.6750   25.7340 C   0  0  0  0  0  0  0  0  0  0  0  0
   16.7190   11.2650   25.0330 C   0  0  0  0  0  0  0  0  0  0  0  0
   16.6380   12.6580   25.0630 C   0  0  0  0  0  0  0  0  0  0  0  0
   17.5640   13.4260   25.7600 C   0  0  0  0  0  0  0  0  0  0  0  0
   18.6000   12.8200   26.4480 C   0  0  0  0  0  0  0  0  0  0  0  0
   15.7160   10.3960   24.2620 C   0  0  0  0  0  0  0  0  0  0  0  0
   15.1670    9.2870   25.1740 C   0  0  0  0  0  0  0  0  0  0  0  0
   14.5080   11.1630   23.6610 C   0  0  0  0  0  0  0  0  0  0  0  0
   16.4550    9.7440   23.0830 C   0  0  0  0  0  0  0  0  0  0  0  0
   21.1430    9.1170   23.7310 O   0  0  0  0  0  0  0  0  0  0  0  0
   23.3230   12.8220   18.1600 F   0  0  0  0  0  0  0  0  0  0  0  0
   26.0770   12.7970   17.8790 N   0  0  0  0  0  0  0  0  0  0  0  0
   29.0870   12.6770   20.6440 C   0  0  0  0  0  0  0  0  0  0  0  0
   28.1660   13.7680   20.6200 O   0  0  0  0  0  0  0  0  0  0  0  0
   28.8150   15.0180   20.7870 C   0  0  0  0  0  0  0  0  0  0  0  0
   27.6820   11.4150   21.6500 H   0  0  0  0  0  0  0  0  0  0  0  0
   22.3130   11.3880   20.0240 H   0  0  0  0  0  0  0  0  0  0  0  0
   26.0860    9.7890   21.3270 H   0  0  0  0  0  0  0  0  0  0  0  0
   24.1370    9.0810   22.4360 H   0  0  0  0  0  0  0  0  0  0  0  0
   22.6350    9.1630   21.5380 H   0  0  0  0  0  0  0  0  0  0  0  0
   22.1000   11.3460   22.5190 H   0  0  0  0  0  0  0  0  0  0  0  0
   22.9040    9.3790   24.7140 H   0  0  0  0  0  0  0  0  0  0  0  0
   20.6870   11.4930   24.6890 H   0  0  0  0  0  0  0  0  0  0  0  0
   23.2940   11.4390   26.3540 H   0  0  0  0  0  0  0  0  0  0  0  0
   21.9950   12.6270   26.5220 H   0  0  0  0  0  0  0  0  0  0  0  0
   24.5250   12.1530   22.7920 H   0  0  0  0  0  0  0  0  0  0  0  0
   24.6720   11.1060   24.2060 H   0  0  0  0  0  0  0  0  0  0  0  0
   21.5960    9.6710   26.8670 H   0  0  0  0  0  0  0  0  0  0  0  0
   20.4250    9.3500   25.7740 H   0  0  0  0  0  0  0  0  0  0  0  0
   20.3960   11.4810   27.8080 H   0  0  0  0  0  0  0  0  0  0  0  0
   19.4710    9.9830   27.8180 H   0  0  0  0  0  0  0  0  0  0  0  0
   17.8860    9.5920   25.7310 H   0  0  0  0  0  0  0  0  0  0  0  0
   15.8390   13.1900   24.5510 H   0  0  0  0  0  0  0  0  0  0  0  0
   17.4680   14.5100   25.7640 H   0  0  0  0  0  0  0  0  0  0  0  0
   19.3090   13.4480   26.9840 H   0  0  0  0  0  0  0  0  0  0  0  0
   14.7430    9.6980   26.0980 H   0  0  0  0  0  0  0  0  0  0  0  0
   15.9360    8.5630   25.4650 H   0  0  0  0  0  0  0  0  0  0  0  0
   14.3780    8.7160   24.6710 H   0  0  0  0  0  0  0  0  0  0  0  0
   13.6750   11.7460   24.6580 O   0  0  0  0  0  0  0  0  0  0  0  0
   13.1300   11.0390   25.0450 H   0  0  0  0  0  0  0  0  0  0  0  0
   13.8780   10.4950   23.0590 H   0  0  0  0  0  0  0  0  0  0  0  0
   14.8370   11.9620   22.9870 H   0  0  0  0  0  0  0  0  0  0  0  0
   17.2850    9.1090   23.4120 H   0  0  0  0  0  0  0  0  0  0  0  0
   16.8730   10.5000   22.4080 H   0  0  0  0  0  0  0  0  0  0  0  0
   15.7820    9.1090   22.4930 H   0  0  0  0  0  0  0  0  0  0  0  0
   20.6330    9.5540   23.0220 H   0  0  0  0  0  0  0  0  0  0  0  0
   25.5430   13.3610   17.2310 H   0  0  0  0  0  0  0  0  0  0  0  0
   27.0890   12.7800   17.8380 H   0  0  0  0  0  0  0  0  0  0  0  0
   29.6730   12.7080   19.7180 H   0  0  0  0  0  0  0  0  0  0  0  0
   29.7620   12.7860   21.5020 H   0  0  0  0  0  0  0  0  0  0  0  0
   28.0630   15.8090   20.7230 H   0  0  0  0  0  0  0  0  0  0  0  0
   29.5550   15.1740   19.9960 H   0  0  0  0  0  0  0  0  0  0  0  0
   29.2960   15.0720   21.7690 H   0  0  0  0  0  0  0  0  0  0  0  0
  1  2  1  0  0  0  0
  2  3  1  0  0  0  0
  2  4  1  0  0  0  0
  2  5  1  0  0  0  0
  5  6  1  0  0  0  0
  5 36  1  0  0  0  0
  5 39  1  0  0  0  0
  6  7  1  0  0  0  0
  7  8  1  0  0  0  0
  7 12  2  0  0  0  0
  8  9  2  0  0  0  0
  8 35  1  0  0  0  0
  9 10  1  0  0  0  0
  9 34  1  0  0  0  0
 10 11  2  0  0  0  0
 10 40  1  0  0  0  0
 11 12  1  0  0  0  0
 11 13  1  0  0  0  0
 12 41  1  0  0  0  0
 13 14  1  0  0  0  0
 13 42  1  0  0  0  0
 13 43  1  0  0  0  0
 14 15  1  0  0  0  0
 14 19  1  0  0  0  0
 14 44  1  0  0  0  0
 15 16  1  0  0  0  0
 15 33  1  0  0  0  0
 15 45  1  0  0  0  0
 16 17  1  0  0  0  0
 16 21  1  0  0  0  0
 16 46  1  0  0  0  0
 17 18  1  0  0  0  0
 17 47  1  0  0  0  0
 17 48  1  0  0  0  0
 18 19  1  0  0  0  0
 18 20  2  0  0  0  0
 19 49  1  0  0  0  0
 19 50  1  0  0  0  0
 21 22  1  0  0  0  0
 21 51  1  0  0  0  0
 21 52  1  0  0  0  0
 22 23  1  0  0  0  0
 22 53  1  0  0  0  0
 22 54  1  0  0  0  0
 23 24  1  0  0  0  0
 23 28  2  0  0  0  0
 24 25  2  0  0  0  0
 24 55  1  0  0  0  0
 25 26  1  0  0  0  0
 25 29  1  0  0  0  0
 26 27  2  0  0  0  0
 26 56  1  0  0  0  0
 27 28  1  0  0  0  0
 27 57  1  0  0  0  0
 28 58  1  0  0  0  0
 29 30  1  0  0  0  0
 29 31  1  0  0  0  0
 29 32  1  0  0  0  0
 30 59  1  0  0  0  0
 30 60  1  0  0  0  0
 30 61  1  0  0  0  0
 31 62  1  0  0  0  0
 31 64  1  0  0  0  0
 31 65  1  0  0  0  0
 32 66  1  0  0  0  0
 32 67  1  0  0  0  0
 32 68  1  0  0  0  0
 33 69  1  0  0  0  0
 35 70  1  0  0  0  0
 35 71  1  0  0  0  0
 36 37  1  0  0  0  0
 36 72  1  0  0  0  0
 36 73  1  0  0  0  0
 37 38  1  0  0  0  0
 38 74  1  0  0  0  0
 38 75  1  0  0  0  0
 38 76  1  0  0  0  0
 62 63  1  0  0  0  0
M  CHG  1  21   1
M  END
>  <PARENT_CMPD_ID>
23981898_17h

>  <STANDARD_TYPE>
IC50

>  <RELATION>
=

>  <STANDARD_VALUE>
0.012

>  <STANDARD_UNITS>
uM

>  <COMPOUND_KEY>
17h

>  <PUBMED_ID>
23981898

>  <JOURNAL>
Bioorg.Med.Chem.Lett.

>  <YEAR>
2013

>  <VOLUME>
23

>  <FIRST_PAGE>
5300

>  <Company>
Novartis

>  <idx>
434

>  <Model>
Valid

>  <target>
7.9208188

>  <des_pred_mlr>
7.1138

>  <RF_Canvas>
7.8953924

>  <DNN_Canvas>
8.0254498

>  <pred_CoMFA>
8.4783001

>  <pred_COMSIA>
7.4639001

>  <pred_abm5>
7.966836

>  <pred_ff8>
7.9537592

>  <pred_gau6>
8.190033

>  <CID>
BACE_434

>  <active>
1

>  <des_class_bayes>
0

>  <maacs_class_bayes>
1

>  <radial_class_bayes>
1

>  <dend_class_bayes>
1

>  <molprint_class_bayes>
1

>  <RF_canvas>
1

>  <DNN_canvas>
1

$$$$
22924815_39
  MOE2015           3D

 56 60  0  0  1  0  0  0  0  0999 V2000
   16.2430   11.1940   22.2060 C   0  0  0  0  0  0  0  0  0  0  0  0
   17.0420   11.6460   21.0030 C   0  0  0  0  0  0  0  0  0  0  0  0
   18.1610   10.7570   20.7350 N   0  0  0  0  0  0  0  0  0  0  0  0
   19.3900   11.0530   21.2770 C   0  0  0  0  0  0  0  0  0  0  0  0
   20.4770   10.2950   21.0640 C   0  0  0  0  0  0  0  0  0  0  0  0
   20.3030    9.0930   20.2700 C   0  0  0  0  0  0  0  0  0  0  0  0
   19.1300    8.7590   19.7180 C   0  0  0  0  0  0  0  0  0  0  0  0
   17.9430    9.6330   19.9450 C   0  0  0  0  0  0  0  0  0  0  0  0
   16.8540    9.3410   19.4580 O   0  0  0  0  0  0  0  0  0  0  0  0
   18.9260    7.5410   18.8890 C   0  0  0  0  0  0  0  0  0  0  0  0
   21.8950   10.5940   21.6040 C   0  0  3  0  0  0  0  0  0  0  0  0
   21.9390   11.7580   22.5680 C   0  0  0  0  0  0  0  0  0  0  0  0
   21.7910   13.1170   22.3630 C   0  0  0  0  0  0  0  0  0  0  0  0
   21.8650   13.9650   23.4640 C   0  0  0  0  0  0  0  0  0  0  0  0
   22.1020   13.4560   24.7430 C   0  0  0  0  0  0  0  0  0  0  0  0
   22.2760   12.0970   24.9230 C   0  0  0  0  0  0  0  0  0  0  0  0
   22.1930   11.2770   23.8310 C   0  0  0  0  0  0  0  0  0  0  0  0
   22.3800    9.8440   23.6880 C   0  0  0  0  0  0  0  0  0  0  0  0
   22.2570    9.4050   22.4690 N   0  0  0  0  0  0  0  0  0  0  0  0
   22.6860    9.0440   24.7380 N   0  0  0  0  0  0  0  0  0  0  0  0
   22.5280   11.6100   26.1380 F   0  0  0  0  0  0  0  0  0  0  0  0
   22.9510   10.8110   20.5020 C   0  0  0  0  0  0  0  0  0  0  0  0
   22.6010   11.2040   19.2100 C   0  0  0  0  0  0  0  0  0  0  0  0
   23.5730   11.4200   18.2490 C   0  0  0  0  0  0  0  0  0  0  0  0
   24.9160   11.2890   18.5720 C   0  0  0  0  0  0  0  0  0  0  0  0
   25.3280   10.9570   19.8640 C   0  0  0  0  0  0  0  0  0  0  0  0
   24.3220   10.7030   20.8050 C   0  0  0  0  0  0  0  0  0  0  0  0
   26.7560   10.9290   20.2230 C   0  0  0  0  0  0  0  0  0  0  0  0
   27.3000   10.0450   21.1610 C   0  0  0  0  0  0  0  0  0  0  0  0
   28.6490   10.1030   21.4790 C   0  0  0  0  0  0  0  0  0  0  0  0
   29.1730    9.2790   22.3940 F   0  0  0  0  0  0  0  0  0  0  0  0
   29.4470   11.0290   20.8410 C   0  0  0  0  0  0  0  0  0  0  0  0
   28.9840   11.8970   19.9230 N   0  0  0  0  0  0  0  0  0  0  0  0
   27.6610   11.8310   19.6550 C   0  0  0  0  0  0  0  0  0  0  0  0
   15.4030   11.8740   22.3830 H   0  0  0  0  0  0  0  0  0  0  0  0
   16.8630   11.1780   23.1080 H   0  0  0  0  0  0  0  0  0  0  0  0
   15.8390   10.1870   22.0610 H   0  0  0  0  0  0  0  0  0  0  0  0
   17.4080   12.6690   21.1500 H   0  0  0  0  0  0  0  0  0  0  0  0
   16.3850   11.6710   20.1250 H   0  0  0  0  0  0  0  0  0  0  0  0
   19.4170   11.9520   21.8810 H   0  0  0  0  0  0  0  0  0  0  0  0
   21.1730    8.4550   20.1330 H   0  0  0  0  0  0  0  0  0  0  0  0
   18.1740    6.8870   19.3420 H   0  0  0  0  0  0  0  0  0  0  0  0
   19.8480    6.9590   18.7830 H   0  0  0  0  0  0  0  0  0  0  0  0
   18.5910    7.8130   17.8830 H   0  0  0  0  0  0  0  0  0  0  0  0
   21.6140   13.5210   21.3710 H   0  0  0  0  0  0  0  0  0  0  0  0
   21.7440   15.0380   23.3260 H   0  0  0  0  0  0  0  0  0  0  0  0
   22.1650   14.1260   25.5960 H   0  0  0  0  0  0  0  0  0  0  0  0
   22.8240    8.0550   24.5770 H   0  0  0  0  0  0  0  0  0  0  0  0
   22.7800    9.4010   25.6820 H   0  0  0  0  0  0  0  0  0  0  0  0
   21.5630   11.3470   18.9210 H   0  0  0  0  0  0  0  0  0  0  0  0
   23.2840   11.7010   17.2390 H   0  0  0  0  0  0  0  0  0  0  0  0
   25.6420   11.4610   17.7790 H   0  0  0  0  0  0  0  0  0  0  0  0
   24.6040   10.4460   21.8250 H   0  0  0  0  0  0  0  0  0  0  0  0
   26.6850    9.3000   21.6570 H   0  0  0  0  0  0  0  0  0  0  0  0
   30.5070   11.0960   21.0630 H   0  0  0  0  0  0  0  0  0  0  0  0
   27.3350   12.5830   18.9390 H   0  0  0  0  0  0  0  0  0  0  0  0
  1  2  1  0  0  0  0
  1 35  1  0  0  0  0
  1 36  1  0  0  0  0
  1 37  1  0  0  0  0
  2  3  1  0  0  0  0
  2 38  1  0  0  0  0
  2 39  1  0  0  0  0
  3  4  1  0  0  0  0
  3  8  1  0  0  0  0
  4  5  2  0  0  0  0
  4 40  1  0  0  0  0
  5  6  1  0  0  0  0
  5 11  1  0  0  0  0
  6  7  2  0  0  0  0
  6 41  1  0  0  0  0
  7  8  1  0  0  0  0
  7 10  1  0  0  0  0
  8  9  2  0  0  0  0
 10 42  1  0  0  0  0
 10 43  1  0  0  0  0
 10 44  1  0  0  0  0
 11 12  1  0  0  0  0
 11 19  1  0  0  0  0
 11 22  1  0  0  0  0
 12 13  1  0  0  0  0
 12 17  2  0  0  0  0
 13 14  2  0  0  0  0
 13 45  1  0  0  0  0
 14 15  1  0  0  0  0
 14 46  1  0  0  0  0
 15 16  2  0  0  0  0
 15 47  1  0  0  0  0
 16 17  1  0  0  0  0
 16 21  1  0  0  0  0
 17 18  1  0  0  0  0
 18 19  2  0  0  0  0
 18 20  1  0  0  0  0
 20 48  1  0  0  0  0
 20 49  1  0  0  0  0
 22 23  1  0  0  0  0
 22 27  2  0  0  0  0
 23 24  2  0  0  0  0
 23 50  1  0  0  0  0
 24 25  1  0  0  0  0
 24 51  1  0  0  0  0
 25 26  2  0  0  0  0
 25 52  1  0  0  0  0
 26 27  1  0  0  0  0
 26 28  1  0  0  0  0
 27 53  1  0  0  0  0
 28 29  1  0  0  0  0
 28 34  2  0  0  0  0
 29 30  2  0  0  0  0
 29 54  1  0  0  0  0
 30 31  1  0  0  0  0
 30 32  1  0  0  0  0
 32 33  2  0  0  0  0
 32 55  1  0  0  0  0
 33 34  1  0  0  0  0
 34 56  1  0  0  0  0
M  END
>  <PARENT_CMPD_ID>
22924815_39

>  <STANDARD_TYPE>
IC50

>  <RELATION>
=

>  <STANDARD_VALUE>
12.9

>  <STANDARD_UNITS>
nM

>  <COMPOUND_KEY>
39

>  <PUBMED_ID>
22924815

>  <JOURNAL>
J.Med.Chem.

>  <YEAR>
2012

>  <VOLUME>
55

>  <FIRST_PAGE>
9346

>  <Company>
AstraZeneca

>  <idx>
435

>  <Model>
Valid

>  <target>
7.8894105

>  <des_pred_mlr>
7.4000602

>  <RF_Canvas>
7.6333213

>  <DNN_Canvas>
7.9899354

>  <pred_CoMFA>
8.9467001

>  <pred_COMSIA>
7.9052

>  <pred_abm5>
7.9267898

>  <pred_ff8>
6.4927526

>  <pred_gau6>
8.0003576

>  <CID>
BACE_435

>  <active>
1

>  <des_class_bayes>
1

>  <maacs_class_bayes>
1

>  <radial_class_bayes>
0

>  <dend_class_bayes>
1

>  <molprint_class_bayes>
1

>  <RF_canvas>
1

>  <DNN_canvas>
1

$$$$
CHEMBL557267
  MOE2015           3D

 92 95  0  0  1  0  0  0  0  0999 V2000
   29.8330   10.9080   22.3740 C   0  0  0  0  0  0  0  0  0  0  0  0
   29.8740   11.8490   21.1880 C   0  0  0  0  0  0  0  0  0  0  0  0
   28.6070   12.6780   21.0970 C   0  0  0  0  0  0  0  0  0  0  0  0
   28.7080   13.9530   21.7770 N   0  0  0  0  0  0  0  0  0  0  0  0
   29.1850   15.0920   21.0280 C   0  0  0  0  0  0  0  0  0  0  0  0
   28.1290   15.6530   20.1000 C   0  0  0  0  0  0  0  0  0  0  0  0
   28.6160   16.9480   19.4900 C   0  0  0  0  0  0  0  0  0  0  0  0
   28.4810   14.1120   23.1310 C   0  0  0  0  0  0  0  0  0  0  0  0
   29.3650   14.0060   23.9720 O   0  0  0  0  0  0  0  0  0  0  0  0
   27.1220   14.5290   23.5300 C   0  0  0  0  0  0  0  0  0  0  0  0
   26.9600   15.7030   24.2580 C   0  0  0  0  0  0  0  0  0  0  0  0
   25.6910   16.0920   24.6860 C   0  0  0  0  0  0  0  0  0  0  0  0
   25.4060   17.6180   25.5390 S   0  0  0  0  0  0  0  0  0  0  0  0
   26.6750   17.5950   26.7810 C   0  0  0  0  0  0  0  0  0  0  0  0
   26.7170   16.5930   27.7570 C   0  0  0  0  0  0  0  0  0  0  0  0
   27.7220   16.5980   28.7270 C   0  0  0  0  0  0  0  0  0  0  0  0
   28.6860   17.6060   28.7310 C   0  0  0  0  0  0  0  0  0  0  0  0
   28.6430   18.6130   27.7690 C   0  0  0  0  0  0  0  0  0  0  0  0
   27.6380   18.6100   26.7990 C   0  0  0  0  0  0  0  0  0  0  0  0
   24.5930   15.2850   24.4070 C   0  0  0  0  0  0  0  0  0  0  0  0
   24.7620   14.0980   23.7070 C   0  0  0  0  0  0  0  0  0  0  0  0
   26.0240   13.7330   23.2420 C   0  0  0  0  0  0  0  0  0  0  0  0
   23.5790   13.2440   23.4590 C   0  0  0  0  0  0  0  0  0  0  0  0
   22.4460   13.7020   23.3870 O   0  0  0  0  0  0  0  0  0  0  0  0
   23.8340   11.8990   23.3550 N   0  0  0  0  0  0  0  0  0  0  0  0
   22.8130   10.9420   22.9540 C   0  0  3  0  0  0  0  0  0  0  0  0
   23.3560   10.0180   21.8520 C   0  0  0  0  0  0  0  0  0  0  0  0
   23.8980   10.7860   20.6730 C   0  0  0  0  0  0  0  0  0  0  0  0
   23.1150   11.7210   19.9930 C   0  0  0  0  0  0  0  0  0  0  0  0
   23.6560   12.4600   18.9540 C   0  0  0  0  0  0  0  0  0  0  0  0
   22.8960   13.3630   18.3330 F   0  0  0  0  0  0  0  0  0  0  0  0
   24.9620   12.2800   18.5520 C   0  0  0  0  0  0  0  0  0  0  0  0
   25.7270   11.3380   19.2070 C   0  0  0  0  0  0  0  0  0  0  0  0
   26.9920   11.1440   18.8340 F   0  0  0  0  0  0  0  0  0  0  0  0
   25.2130   10.5930   20.2570 C   0  0  0  0  0  0  0  0  0  0  0  0
   22.3250   10.1940   24.2010 C   0  0  3  0  0  0  0  0  0  0  0  0
   23.4330    9.7030   24.9580 O   0  0  0  0  0  0  0  0  0  0  0  0
   21.5140   11.1280   25.0970 C   0  0  0  0  0  0  0  0  0  0  0  0
   20.8820   10.3110   26.1850 N   0  3  0  0  0  0  0  0  0  0  0  0
   19.9550   11.0820   27.0700 C   0  0  0  0  0  0  0  0  0  0  0  0
   18.7530   11.6120   26.3370 C   0  0  0  0  0  0  0  0  0  0  0  0
   18.4610   12.9740   26.3350 C   0  0  0  0  0  0  0  0  0  0  0  0
   17.3810   13.4620   25.6090 C   0  0  0  0  0  0  0  0  0  0  0  0
   16.5820   12.5990   24.8670 C   0  0  0  0  0  0  0  0  0  0  0  0
   16.8510   11.2360   24.8620 C   0  0  0  0  0  0  0  0  0  0  0  0
   16.1680   10.2750   24.1730 O   0  0  0  0  0  0  0  0  0  0  0  0
   15.0860   10.7130   23.3700 C   0  0  0  0  0  0  0  0  0  0  0  0
   17.9220   10.7520   25.6120 C   0  0  0  0  0  0  0  0  0  0  0  0
   30.7420   10.2970   22.4000 H   0  0  0  0  0  0  0  0  0  0  0  0
   28.9770   10.2270   22.3110 H   0  0  0  0  0  0  0  0  0  0  0  0
   29.7700   11.4500   23.3210 H   0  0  0  0  0  0  0  0  0  0  0  0
   29.9610   11.2360   20.2830 H   0  0  0  0  0  0  0  0  0  0  0  0
   30.7690   12.4800   21.2370 H   0  0  0  0  0  0  0  0  0  0  0  0
   27.7700   12.1130   21.5120 H   0  0  0  0  0  0  0  0  0  0  0  0
   28.3750   12.8710   20.0450 H   0  0  0  0  0  0  0  0  0  0  0  0
   29.4970   15.8670   21.7390 H   0  0  0  0  0  0  0  0  0  0  0  0
   30.0790   14.7920   20.4690 H   0  0  0  0  0  0  0  0  0  0  0  0
   27.8890   14.9420   19.3030 H   0  0  0  0  0  0  0  0  0  0  0  0
   27.1980   15.8410   20.6480 H   0  0  0  0  0  0  0  0  0  0  0  0
   29.5350   16.7930   18.9150 H   0  0  0  0  0  0  0  0  0  0  0  0
   28.8150   17.7010   20.2590 H   0  0  0  0  0  0  0  0  0  0  0  0
   27.8590   17.3550   18.8110 H   0  0  0  0  0  0  0  0  0  0  0  0
   27.8320   16.3180   24.4750 H   0  0  0  0  0  0  0  0  0  0  0  0
   25.9720   15.8030   27.7730 H   0  0  0  0  0  0  0  0  0  0  0  0
   27.7530   15.8170   29.4830 H   0  0  0  0  0  0  0  0  0  0  0  0
   29.4670   17.6090   29.4870 H   0  0  0  0  0  0  0  0  0  0  0  0
   29.3910   19.4030   27.7750 H   0  0  0  0  0  0  0  0  0  0  0  0
   27.6170   19.4040   26.0560 H   0  0  0  0  0  0  0  0  0  0  0  0
   23.5980   15.5780   24.7360 H   0  0  0  0  0  0  0  0  0  0  0  0
   26.1530   12.8290   22.6610 H   0  0  0  0  0  0  0  0  0  0  0  0
   24.7500   11.5300   23.5830 H   0  0  0  0  0  0  0  0  0  0  0  0
   21.9570   11.4880   22.5370 H   0  0  0  0  0  0  0  0  0  0  0  0
   24.1450    9.3770   22.2630 H   0  0  0  0  0  0  0  0  0  0  0  0
   22.5630    9.3470   21.4990 H   0  0  0  0  0  0  0  0  0  0  0  0
   22.0800   11.9030   20.2700 H   0  0  0  0  0  0  0  0  0  0  0  0
   25.3770   12.8620   17.7380 H   0  0  0  0  0  0  0  0  0  0  0  0
   25.8610    9.8690   20.7450 H   0  0  0  0  0  0  0  0  0  0  0  0
   21.7070    9.3380   23.9030 H   0  0  0  0  0  0  0  0  0  0  0  0
   23.8730    8.9950   24.4520 H   0  0  0  0  0  0  0  0  0  0  0  0
   20.7140   11.6120   24.5320 H   0  0  0  0  0  0  0  0  0  0  0  0
   22.1380   11.8720   25.6030 H   0  0  0  0  0  0  0  0  0  0  0  0
   20.3830    9.5080   25.7860 H   0  0  0  0  0  0  0  0  0  0  0  0
   21.6530    9.9130   26.7410 H   0  0  0  0  0  0  0  0  0  0  0  0
   19.6380   10.3950   27.8620 H   0  0  0  0  0  0  0  0  0  0  0  0
   20.5470   11.8830   27.5280 H   0  0  0  0  0  0  0  0  0  0  0  0
   19.0770   13.6790   26.8900 H   0  0  0  0  0  0  0  0  0  0  0  0
   17.1630   14.5280   25.6110 H   0  0  0  0  0  0  0  0  0  0  0  0
   15.7560   13.0230   24.3050 H   0  0  0  0  0  0  0  0  0  0  0  0
   14.6540    9.8350   22.8800 H   0  0  0  0  0  0  0  0  0  0  0  0
   15.4260   11.3960   22.5840 H   0  0  0  0  0  0  0  0  0  0  0  0
   14.3010   11.1730   23.9790 H   0  0  0  0  0  0  0  0  0  0  0  0
   18.0970    9.6780   25.6110 H   0  0  0  0  0  0  0  0  0  0  0  0
  1  2  1  0  0  0  0
  1 49  1  0  0  0  0
  1 50  1  0  0  0  0
  1 51  1  0  0  0  0
  2  3  1  0  0  0  0
  2 52  1  0  0  0  0
  2 53  1  0  0  0  0
  3  4  1  0  0  0  0
  3 54  1  0  0  0  0
  3 55  1  0  0  0  0
  4  5  1  0  0  0  0
  4  8  1  0  0  0  0
  5  6  1  0  0  0  0
  5 56  1  0  0  0  0
  5 57  1  0  0  0  0
  6  7  1  0  0  0  0
  6 58  1  0  0  0  0
  6 59  1  0  0  0  0
  7 60  1  0  0  0  0
  7 61  1  0  0  0  0
  7 62  1  0  0  0  0
  8  9  2  0  0  0  0
  8 10  1  0  0  0  0
 10 11  1  0  0  0  0
 10 22  2  0  0  0  0
 11 12  2  0  0  0  0
 11 63  1  0  0  0  0
 12 13  1  0  0  0  0
 12 20  1  0  0  0  0
 13 14  1  0  0  0  0
 14 15  1  0  0  0  0
 14 19  2  0  0  0  0
 15 16  2  0  0  0  0
 15 64  1  0  0  0  0
 16 17  1  0  0  0  0
 16 65  1  0  0  0  0
 17 18  2  0  0  0  0
 17 66  1  0  0  0  0
 18 19  1  0  0  0  0
 18 67  1  0  0  0  0
 19 68  1  0  0  0  0
 20 21  2  0  0  0  0
 20 69  1  0  0  0  0
 21 22  1  0  0  0  0
 21 23  1  0  0  0  0
 22 70  1  0  0  0  0
 23 24  2  0  0  0  0
 23 25  1  0  0  0  0
 25 26  1  0  0  0  0
 25 71  1  0  0  0  0
 26 27  1  0  0  0  0
 26 36  1  0  0  0  0
 26 72  1  0  0  0  0
 27 28  1  0  0  0  0
 27 73  1  0  0  0  0
 27 74  1  0  0  0  0
 28 29  1  0  0  0  0
 28 35  2  0  0  0  0
 29 30  2  0  0  0  0
 29 75  1  0  0  0  0
 30 31  1  0  0  0  0
 30 32  1  0  0  0  0
 32 33  2  0  0  0  0
 32 76  1  0  0  0  0
 33 34  1  0  0  0  0
 33 35  1  0  0  0  0
 35 77  1  0  0  0  0
 36 37  1  0  0  0  0
 36 38  1  0  0  0  0
 36 78  1  0  0  0  0
 37 79  1  0  0  0  0
 38 39  1  0  0  0  0
 38 80  1  0  0  0  0
 38 81  1  0  0  0  0
 39 40  1  0  0  0  0
 39 82  1  0  0  0  0
 39 83  1  0  0  0  0
 40 41  1  0  0  0  0
 40 84  1  0  0  0  0
 40 85  1  0  0  0  0
 41 42  1  0  0  0  0
 41 48  2  0  0  0  0
 42 43  2  0  0  0  0
 42 86  1  0  0  0  0
 43 44  1  0  0  0  0
 43 87  1  0  0  0  0
 44 45  2  0  0  0  0
 44 88  1  0  0  0  0
 45 46  1  0  0  0  0
 45 48  1  0  0  0  0
 46 47  1  0  0  0  0
 47 89  1  0  0  0  0
 47 90  1  0  0  0  0
 47 91  1  0  0  0  0
 48 92  1  0  0  0  0
M  CHG  1  39   1
M  END
>  <PARENT_CMPD_ID>
CHEMBL557267

>  <STANDARD_TYPE>
IC50

>  <RELATION>
=

>  <STANDARD_VALUE>
13

>  <STANDARD_UNITS>
nM

>  <COMPOUND_KEY>
7e

>  <PUBMED_ID>
19375914

>  <JOURNAL>
Bioorg. Med. Chem. Lett.

>  <YEAR>
2009

>  <VOLUME>
19

>  <FIRST_PAGE>
2654

>  <Company>
BMS

>  <idx>
436

>  <Model>
Valid

>  <target>
7.8860564

>  <des_pred_mlr>
8.0717297

>  <RF_Canvas>
7.4731731

>  <DNN_Canvas>
7.8466477

>  <pred_CoMFA>
6.8692999

>  <pred_COMSIA>
7.9158001

>  <pred_abm5>
6.9616385

>  <pred_ff8>
5.8410501

>  <pred_gau6>
7.0735712

>  <CID>
BACE_436

>  <active>
1

>  <des_class_bayes>
1

>  <maacs_class_bayes>
0

>  <radial_class_bayes>
1

>  <dend_class_bayes>
1

>  <molprint_class_bayes>
1

>  <RF_canvas>
1

>  <DNN_canvas>
1

$$$$
CHEMBL558471
  MOE2015           3D

 76 80  0  0  1  0  0  0  0  0999 V2000
   29.5700   11.1240   21.4720 C   0  0  0  0  0  0  0  0  0  0  0  0
   29.2050   12.5030   20.9700 C   0  0  0  0  0  0  0  0  0  0  0  0
   29.0300   13.4530   22.0470 N   0  0  0  0  0  0  0  0  0  0  0  0
   30.0230   14.2580   22.5000 C   0  0  0  0  0  0  0  0  0  0  0  0
   29.5550   14.9710   23.5790 C   0  0  0  0  0  0  0  0  0  0  0  0
   30.4660   15.7480   24.4600 C   0  0  0  0  0  0  0  0  0  0  0  0
   29.8810   16.7090   25.4470 C   0  0  0  0  0  0  0  0  0  0  0  0
   28.6500   16.0260   26.5310 S   0  0  0  0  0  0  0  0  0  0  0  0
   28.8540   14.6220   26.8170 O   0  0  0  0  0  0  0  0  0  0  0  0
   28.4470   16.9560   27.6190 O   0  0  0  0  0  0  0  0  0  0  0  0
   27.2720   16.1100   25.5430 N   0  0  0  0  0  0  0  0  0  0  0  0
   26.6710   17.4090   25.2460 C   0  0  0  0  0  0  0  0  0  0  0  0
   27.1230   15.0800   24.5620 C   0  0  0  0  0  0  0  0  0  0  0  0
   25.8540   14.4970   24.4490 C   0  0  0  0  0  0  0  0  0  0  0  0
   25.6260   13.4670   23.5550 C   0  0  0  0  0  0  0  0  0  0  0  0
   26.6320   13.0580   22.6790 C   0  0  0  0  0  0  0  0  0  0  0  0
   27.8840   13.6740   22.7640 C   0  0  0  0  0  0  0  0  0  0  0  0
   28.1660   14.6660   23.7050 C   0  0  0  0  0  0  0  0  0  0  0  0
   24.2860   12.8290   23.4930 C   0  0  0  0  0  0  0  0  0  0  0  0
   23.2550   13.4820   23.5880 O   0  0  0  0  0  0  0  0  0  0  0  0
   24.2870   11.4720   23.2530 N   0  0  0  0  0  0  0  0  0  0  0  0
   23.1060   10.7460   22.8090 C   0  0  3  0  0  0  0  0  0  0  0  0
   23.4720    9.7730   21.6760 C   0  0  0  0  0  0  0  0  0  0  0  0
   24.3220   10.4030   20.6030 C   0  0  0  0  0  0  0  0  0  0  0  0
   23.9260   11.5760   19.9590 C   0  0  0  0  0  0  0  0  0  0  0  0
   24.7460   12.1740   19.0120 C   0  0  0  0  0  0  0  0  0  0  0  0
   25.9600   11.5950   18.6800 C   0  0  0  0  0  0  0  0  0  0  0  0
   26.3540   10.4170   19.2960 C   0  0  0  0  0  0  0  0  0  0  0  0
   25.5410    9.8250   20.2530 C   0  0  0  0  0  0  0  0  0  0  0  0
   22.3210   10.0520   23.9160 C   0  0  0  0  0  0  0  0  0  0  0  0
   21.8300    8.9240   23.7840 O   0  0  0  0  0  0  0  0  0  0  0  0
   21.8550   10.8540   25.1190 C   0  0  0  0  0  0  0  0  0  0  0  0
   20.4140   10.4490   25.3140 N   0  3  0  0  0  0  0  0  0  0  0  0
   19.4860   11.2130   26.2080 C   0  0  0  0  0  0  0  0  0  0  0  0
   18.1320   10.5240   26.0660 C   0  0  0  0  0  0  0  0  0  0  0  0
   17.0140   11.3550   26.6570 C   0  0  0  0  0  0  0  0  0  0  0  0
   16.9980   12.6340   26.0390 O   0  0  0  0  0  0  0  0  0  0  0  0
   18.1820   13.3700   26.3250 C   0  0  0  0  0  0  0  0  0  0  0  0
   19.3910   12.6630   25.7510 C   0  0  0  0  0  0  0  0  0  0  0  0
   29.7070   10.4370   20.6310 H   0  0  0  0  0  0  0  0  0  0  0  0
   28.7870   10.7150   22.1190 H   0  0  0  0  0  0  0  0  0  0  0  0
   30.5010   11.1450   22.0490 H   0  0  0  0  0  0  0  0  0  0  0  0
   28.2820   12.4810   20.3850 H   0  0  0  0  0  0  0  0  0  0  0  0
   29.9920   12.8850   20.3080 H   0  0  0  0  0  0  0  0  0  0  0  0
   31.0200   14.2080   22.0790 H   0  0  0  0  0  0  0  0  0  0  0  0
   31.1740   16.3030   23.8300 H   0  0  0  0  0  0  0  0  0  0  0  0
   31.0730   15.0180   25.0150 H   0  0  0  0  0  0  0  0  0  0  0  0
   29.4470   17.5850   24.9540 H   0  0  0  0  0  0  0  0  0  0  0  0
   30.6770   17.0860   26.1000 H   0  0  0  0  0  0  0  0  0  0  0  0
   27.0730   17.8220   24.3150 H   0  0  0  0  0  0  0  0  0  0  0  0
   26.8480   18.1310   26.0480 H   0  0  0  0  0  0  0  0  0  0  0  0
   25.5850   17.3140   25.1470 H   0  0  0  0  0  0  0  0  0  0  0  0
   25.0550   14.8260   25.1100 H   0  0  0  0  0  0  0  0  0  0  0  0
   26.4500   12.2920   21.9330 H   0  0  0  0  0  0  0  0  0  0  0  0
   25.1570   10.9570   23.3550 H   0  0  0  0  0  0  0  0  0  0  0  0
   22.4030   11.4840   22.4000 H   0  0  0  0  0  0  0  0  0  0  0  0
   24.0010    8.9110   22.1040 H   0  0  0  0  0  0  0  0  0  0  0  0
   22.5620    9.3700   21.2130 H   0  0  0  0  0  0  0  0  0  0  0  0
   22.9720   12.0440   20.1890 H   0  0  0  0  0  0  0  0  0  0  0  0
   24.4300   13.0900   18.5190 H   0  0  0  0  0  0  0  0  0  0  0  0
   26.5970   12.0580   17.9310 H   0  0  0  0  0  0  0  0  0  0  0  0
   27.3040    9.9590   19.0330 H   0  0  0  0  0  0  0  0  0  0  0  0
   25.8770    8.9060   20.7280 H   0  0  0  0  0  0  0  0  0  0  0  0
   21.8650   11.9210   24.9130 H   0  0  0  0  0  0  0  0  0  0  0  0
   22.4130   10.5950   26.0200 H   0  0  0  0  0  0  0  0  0  0  0  0
   20.4380    9.4520   25.5860 H   0  0  0  0  0  0  0  0  0  0  0  0
   19.9900   10.4110   24.3740 H   0  0  0  0  0  0  0  0  0  0  0  0
   19.8720   11.1350   27.2300 H   0  0  0  0  0  0  0  0  0  0  0  0
   18.1550    9.5360   26.5420 H   0  0  0  0  0  0  0  0  0  0  0  0
   17.9050   10.3620   25.0030 H   0  0  0  0  0  0  0  0  0  0  0  0
   17.1190   11.4640   27.7430 H   0  0  0  0  0  0  0  0  0  0  0  0
   16.0480   10.8760   26.4650 H   0  0  0  0  0  0  0  0  0  0  0  0
   18.0780   14.3620   25.8750 H   0  0  0  0  0  0  0  0  0  0  0  0
   18.2760   13.5100   27.4090 H   0  0  0  0  0  0  0  0  0  0  0  0
   19.3140   12.6930   24.6560 H   0  0  0  0  0  0  0  0  0  0  0  0
   20.2990   13.2140   26.0230 H   0  0  0  0  0  0  0  0  0  0  0  0
  1  2  1  0  0  0  0
  1 40  1  0  0  0  0
  1 41  1  0  0  0  0
  1 42  1  0  0  0  0
  2  3  1  0  0  0  0
  2 43  1  0  0  0  0
  2 44  1  0  0  0  0
  3  4  1  0  0  0  0
  3 17  1  0  0  0  0
  4  5  2  0  0  0  0
  4 45  1  0  0  0  0
  5  6  1  0  0  0  0
  5 18  1  0  0  0  0
  6  7  1  0  0  0  0
  6 46  1  0  0  0  0
  6 47  1  0  0  0  0
  7  8  1  0  0  0  0
  7 48  1  0  0  0  0
  7 49  1  0  0  0  0
  8  9  2  0  0  0  0
  8 10  2  0  0  0  0
  8 11  1  0  0  0  0
 11 12  1  0  0  0  0
 11 13  1  0  0  0  0
 12 50  1  0  0  0  0
 12 51  1  0  0  0  0
 12 52  1  0  0  0  0
 13 14  1  0  0  0  0
 13 18  2  0  0  0  0
 14 15  2  0  0  0  0
 14 53  1  0  0  0  0
 15 16  1  0  0  0  0
 15 19  1  0  0  0  0
 16 17  2  0  0  0  0
 16 54  1  0  0  0  0
 17 18  1  0  0  0  0
 19 20  2  0  0  0  0
 19 21  1  0  0  0  0
 21 22  1  0  0  0  0
 21 55  1  0  0  0  0
 22 23  1  0  0  0  0
 22 30  1  0  0  0  0
 22 56  1  0  0  0  0
 23 24  1  0  0  0  0
 23 57  1  0  0  0  0
 23 58  1  0  0  0  0
 24 25  1  0  0  0  0
 24 29  2  0  0  0  0
 25 26  2  0  0  0  0
 25 59  1  0  0  0  0
 26 27  1  0  0  0  0
 26 60  1  0  0  0  0
 27 28  2  0  0  0  0
 27 61  1  0  0  0  0
 28 29  1  0  0  0  0
 28 62  1  0  0  0  0
 29 63  1  0  0  0  0
 30 31  2  0  0  0  0
 30 32  1  0  0  0  0
 32 33  1  0  0  0  0
 32 64  1  0  0  0  0
 32 65  1  0  0  0  0
 33 34  1  0  0  0  0
 33 66  1  0  0  0  0
 33 67  1  0  0  0  0
 34 35  1  0  0  0  0
 34 39  1  0  0  0  0
 34 68  1  0  0  0  0
 35 36  1  0  0  0  0
 35 69  1  0  0  0  0
 35 70  1  0  0  0  0
 36 37  1  0  0  0  0
 36 71  1  0  0  0  0
 36 72  1  0  0  0  0
 37 38  1  0  0  0  0
 38 39  1  0  0  0  0
 38 73  1  0  0  0  0
 38 74  1  0  0  0  0
 39 75  1  0  0  0  0
 39 76  1  0  0  0  0
M  CHG  1  33   1
M  END
>  <PARENT_CMPD_ID>
CHEMBL558471

>  <STANDARD_TYPE>
IC50

>  <RELATION>
=

>  <STANDARD_VALUE>
13

>  <STANDARD_UNITS>
nM

>  <COMPOUND_KEY>
29

>  <PUBMED_ID>
19406640

>  <JOURNAL>
Bioorg. Med. Chem. Lett.

>  <YEAR>
2009

>  <VOLUME>
19

>  <FIRST_PAGE>
3674

>  <Company>
GSK

>  <idx>
437

>  <Model>
Valid

>  <target>
7.8860564

>  <des_pred_mlr>
6.8958201

>  <RF_Canvas>
7.5027695

>  <DNN_Canvas>
7.3753519

>  <pred_CoMFA>
6.8204999

>  <pred_COMSIA>
6.9129

>  <pred_abm5>
6.8701868

>  <pred_ff8>
7.3272328

>  <pred_gau6>
7.132381

>  <CID>
BACE_437

>  <active>
1

>  <des_class_bayes>
1

>  <maacs_class_bayes>
1

>  <radial_class_bayes>
1

>  <dend_class_bayes>
1

>  <molprint_class_bayes>
1

>  <RF_canvas>
1

>  <DNN_canvas>
1

$$$$
CHEMBL1210362
  MOE2015           3D

 86 90  0  0  1  0  0  0  0  0999 V2000
   28.1260   13.5140   22.8260 C   0  0  0  0  0  0  0  0  0  0  0  0
   28.2960   14.5110   23.7770 C   0  0  0  0  0  0  0  0  0  0  0  0
   27.2450   14.9490   24.5510 C   0  0  0  0  0  0  0  0  0  0  0  0
   25.9890   14.4010   24.4060 C   0  0  0  0  0  0  0  0  0  0  0  0
   25.8120   13.4090   23.4600 C   0  0  0  0  0  0  0  0  0  0  0  0
   26.8590   12.9700   22.6640 C   0  0  0  0  0  0  0  0  0  0  0  0
   24.4670   12.8370   23.2970 C   0  0  0  0  0  0  0  0  0  0  0  0
   23.4860   13.5710   23.2770 O   0  0  0  0  0  0  0  0  0  0  0  0
   24.4130   11.4770   23.1530 N   0  0  0  0  0  0  0  0  0  0  0  0
   23.1870   10.8210   22.7430 C   0  0  3  0  0  0  0  0  0  0  0  0
   23.5020    9.8670   21.5980 C   0  0  0  0  0  0  0  0  0  0  0  0
   24.3520   10.4960   20.5300 C   0  0  0  0  0  0  0  0  0  0  0  0
   23.9740   11.6980   19.9550 C   0  0  0  0  0  0  0  0  0  0  0  0
   24.7830   12.2580   18.9800 C   0  0  0  0  0  0  0  0  0  0  0  0
   25.9490   11.6360   18.5770 C   0  0  0  0  0  0  0  0  0  0  0  0
   26.3280   10.4440   19.1500 C   0  0  0  0  0  0  0  0  0  0  0  0
   25.5260    9.8760   20.1250 C   0  0  0  0  0  0  0  0  0  0  0  0
   22.5430   10.1470   23.9570 C   0  0  3  0  0  0  0  0  0  0  0  0
   21.4100    9.3600   23.5880 O   0  0  0  0  0  0  0  0  0  0  0  0
   21.9980   11.1450   24.9750 C   0  0  0  0  0  0  0  0  0  0  0  0
   21.3680   10.3940   26.0670 N   0  3  0  0  0  0  0  0  0  0  0  0
   20.3480   11.1510   26.8210 C   0  0  0  0  0  0  0  0  0  0  0  0
   27.4120   15.9900   25.5160 N   0  0  0  0  0  0  0  0  0  0  0  0
   26.5810   17.1510   25.3650 C   0  0  0  0  0  0  0  0  0  0  0  0
   25.5980   17.3940   26.2960 C   0  0  0  0  0  0  0  0  0  0  0  0
   24.7960   18.5090   26.1610 C   0  0  0  0  0  0  0  0  0  0  0  0
   24.9840   19.3540   25.0900 C   0  0  0  0  0  0  0  0  0  0  0  0
   25.9650   19.0960   24.1530 C   0  0  0  0  0  0  0  0  0  0  0  0
   26.7820   17.9820   24.2880 C   0  0  0  0  0  0  0  0  0  0  0  0
   28.7460   16.1330   26.5400 S   0  0  0  0  0  0  0  0  0  0  0  0
   29.8550   17.1970   25.6590 C   0  0  0  0  0  0  0  0  0  0  0  0
   29.3320   14.8140   26.6470 O   0  0  0  0  0  0  0  0  0  0  0  0
   28.3110   16.8350   27.7370 O   0  0  0  0  0  0  0  0  0  0  0  0
   29.2730   14.9520   23.9120 H   0  0  0  0  0  0  0  0  0  0  0  0
   25.1640   14.7380   25.0160 H   0  0  0  0  0  0  0  0  0  0  0  0
   26.6890   12.2060   21.9190 H   0  0  0  0  0  0  0  0  0  0  0  0
   25.2380   10.9230   23.3350 H   0  0  0  0  0  0  0  0  0  0  0  0
   22.4540   11.5340   22.3660 H   0  0  0  0  0  0  0  0  0  0  0  0
   22.5640    9.5410   21.1490 H   0  0  0  0  0  0  0  0  0  0  0  0
   24.0320    9.0030   22.0000 H   0  0  0  0  0  0  0  0  0  0  0  0
   23.0630   12.1910   20.2620 H   0  0  0  0  0  0  0  0  0  0  0  0
   24.4980   13.1960   18.5270 H   0  0  0  0  0  0  0  0  0  0  0  0
   26.5640   12.0860   17.8110 H   0  0  0  0  0  0  0  0  0  0  0  0
   27.2410    9.9570   18.8420 H   0  0  0  0  0  0  0  0  0  0  0  0
   25.8170    8.9390   20.5760 H   0  0  0  0  0  0  0  0  0  0  0  0
   23.3480    9.5480   24.3810 H   0  0  0  0  0  0  0  0  0  0  0  0
   20.7490    9.9550   23.2250 H   0  0  0  0  0  0  0  0  0  0  0  0
   21.2600   11.7910   24.4990 H   0  0  0  0  0  0  0  0  0  0  0  0
   22.8130   11.7520   25.3680 H   0  0  0  0  0  0  0  0  0  0  0  0
   22.0910   10.1090   26.7120 H   0  0  0  0  0  0  0  0  0  0  0  0
   20.9270    9.5750   25.6730 H   0  0  0  0  0  0  0  0  0  0  0  0
   19.8630   10.4660   27.5170 H   0  0  0  0  0  0  0  0  0  0  0  0
   20.8350   11.9810   27.3340 H   0  0  0  0  0  0  0  0  0  0  0  0
   25.4550   16.7180   27.1260 H   0  0  0  0  0  0  0  0  0  0  0  0
   24.0270   18.7170   26.8900 H   0  0  0  0  0  0  0  0  0  0  0  0
   24.3580   20.2270   24.9820 H   0  0  0  0  0  0  0  0  0  0  0  0
   26.0970   19.7620   23.3130 H   0  0  0  0  0  0  0  0  0  0  0  0
   27.5570   17.7730   23.5650 H   0  0  0  0  0  0  0  0  0  0  0  0
   30.1980   16.6950   24.7540 H   0  0  0  0  0  0  0  0  0  0  0  0
   30.7110   17.4330   26.2910 H   0  0  0  0  0  0  0  0  0  0  0  0
   29.3380   18.1180   25.3900 H   0  0  0  0  0  0  0  0  0  0  0  0
   17.4480   12.7400   24.3140 C   0  0  0  0  0  0  0  0  0  0  0  0
   16.6880   13.1560   23.6580 H   0  0  0  0  0  0  0  0  0  0  0  0
   17.5030   11.3630   24.5310 C   0  0  0  0  0  0  0  0  0  0  0  0
   16.7870   10.7070   24.0440 H   0  0  0  0  0  0  0  0  0  0  0  0
   18.4780   10.8290   25.3740 C   0  0  0  0  0  0  0  0  0  0  0  0
   18.5210    9.7570   25.5430 H   0  0  0  0  0  0  0  0  0  0  0  0
   19.3980   11.6720   26.0000 C   0  0  0  0  0  0  0  0  0  0  0  0
   19.3420   13.0490   25.7820 C   0  0  0  0  0  0  0  0  0  0  0  0
   20.0580   13.7050   26.2690 H   0  0  0  0  0  0  0  0  0  0  0  0
   18.3670   13.5830   24.9390 C   0  0  0  0  0  0  0  0  0  0  0  0
   18.3080   15.0500   24.7070 C   0  0  0  0  0  0  0  0  0  0  0  0
   17.2840   15.3330   23.8580 F   0  0  0  0  0  0  0  0  0  0  0  0
   19.4800   15.4700   24.1610 F   0  0  0  0  0  0  0  0  0  0  0  0
   18.1040   15.6880   25.8910 F   0  0  0  0  0  0  0  0  0  0  0  0
   31.3200   12.1950   20.5290 C   0  0  0  0  0  0  0  0  0  0  0  0
   32.1570   11.8490   19.9280 H   0  0  0  0  0  0  0  0  0  0  0  0
   31.3200   11.9840   21.9080 C   0  0  0  0  0  0  0  0  0  0  0  0
   32.1550   11.4750   22.3810 H   0  0  0  0  0  0  0  0  0  0  0  0
   30.2460   12.4280   22.6810 C   0  0  0  0  0  0  0  0  0  0  0  0
   30.2450   12.2640   23.7550 H   0  0  0  0  0  0  0  0  0  0  0  0
   29.1730   13.0820   22.0730 C   0  0  0  0  0  0  0  0  0  0  0  0
   29.1750   13.2920   20.6940 C   0  0  0  0  0  0  0  0  0  0  0  0
   28.3390   13.8010   20.2210 H   0  0  0  0  0  0  0  0  0  0  0  0
   30.2480   12.8480   19.9220 C   0  0  0  0  0  0  0  0  0  0  0  0
   30.2490   13.0120   18.8480 H   0  0  0  0  0  0  0  0  0  0  0  0
  1  2  1  0  0  0  0
  1  6  2  0  0  0  0
  1 82  1  0  0  0  0
  2  3  2  0  0  0  0
  2 34  1  0  0  0  0
  3  4  1  0  0  0  0
  3 23  1  0  0  0  0
  4  5  2  0  0  0  0
  4 35  1  0  0  0  0
  5  6  1  0  0  0  0
  5  7  1  0  0  0  0
  6 36  1  0  0  0  0
  7  8  2  0  0  0  0
  7  9  1  0  0  0  0
  9 10  1  0  0  0  0
  9 37  1  0  0  0  0
 10 11  1  0  0  0  0
 10 18  1  0  0  0  0
 10 38  1  0  0  0  0
 11 12  1  0  0  0  0
 11 39  1  0  0  0  0
 11 40  1  0  0  0  0
 12 13  1  0  0  0  0
 12 17  2  0  0  0  0
 13 14  2  0  0  0  0
 13 41  1  0  0  0  0
 14 15  1  0  0  0  0
 14 42  1  0  0  0  0
 15 16  2  0  0  0  0
 15 43  1  0  0  0  0
 16 17  1  0  0  0  0
 16 44  1  0  0  0  0
 17 45  1  0  0  0  0
 18 19  1  0  0  0  0
 18 20  1  0  0  0  0
 18 46  1  0  0  0  0
 19 47  1  0  0  0  0
 20 21  1  0  0  0  0
 20 48  1  0  0  0  0
 20 49  1  0  0  0  0
 21 22  1  0  0  0  0
 21 50  1  0  0  0  0
 21 51  1  0  0  0  0
 22 52  1  0  0  0  0
 22 53  1  0  0  0  0
 22 68  1  0  0  0  0
 23 24  1  0  0  0  0
 23 30  1  0  0  0  0
 24 25  1  0  0  0  0
 24 29  2  0  0  0  0
 25 26  2  0  0  0  0
 25 54  1  0  0  0  0
 26 27  1  0  0  0  0
 26 55  1  0  0  0  0
 27 28  2  0  0  0  0
 27 56  1  0  0  0  0
 28 29  1  0  0  0  0
 28 57  1  0  0  0  0
 29 58  1  0  0  0  0
 30 31  1  0  0  0  0
 30 32  2  0  0  0  0
 30 33  2  0  0  0  0
 31 59  1  0  0  0  0
 31 60  1  0  0  0  0
 31 61  1  0  0  0  0
 62 63  1  0  0  0  0
 62 64  1  0  0  0  0
 62 71  2  0  0  0  0
 64 65  1  0  0  0  0
 64 66  2  0  0  0  0
 66 67  1  0  0  0  0
 66 68  1  0  0  0  0
 68 69  2  0  0  0  0
 69 70  1  0  0  0  0
 69 71  1  0  0  0  0
 71 72  1  0  0  0  0
 72 73  1  0  0  0  0
 72 74  1  0  0  0  0
 72 75  1  0  0  0  0
 76 77  1  0  0  0  0
 76 78  1  0  0  0  0
 76 85  2  0  0  0  0
 78 79  1  0  0  0  0
 78 80  2  0  0  0  0
 80 81  1  0  0  0  0
 80 82  1  0  0  0  0
 82 83  2  0  0  0  0
 83 84  1  0  0  0  0
 83 85  1  0  0  0  0
 85 86  1  0  0  0  0
M  CHG  1  21   1
M  END
>  <PARENT_CMPD_ID>
CHEMBL1210362

>  <STANDARD_TYPE>
IC50

>  <RELATION>
=

>  <STANDARD_VALUE>
13

>  <STANDARD_UNITS>
nM

>  <COMPOUND_KEY>
44

>  <PUBMED_ID>
20579874

>  <JOURNAL>
Bioorg. Med. Chem. Lett.

>  <YEAR>
2010

>  <VOLUME>
20

>  <FIRST_PAGE>
4639

>  <Company>
GSK

>  <idx>
438

>  <Model>
Valid

>  <target>
7.8860564

>  <des_pred_mlr>
7.9464502

>  <RF_Canvas>
7.6449299

>  <DNN_Canvas>
8.1107607

>  <pred_CoMFA>
7.2673998

>  <pred_COMSIA>
8.1063004

>  <pred_abm5>
7.4274783

>  <pred_ff8>
7.7958117

>  <pred_gau6>
7.6444955

>  <CID>
BACE_438

>  <active>
1

>  <des_class_bayes>
1

>  <maacs_class_bayes>
1

>  <radial_class_bayes>
1

>  <dend_class_bayes>
1

>  <molprint_class_bayes>
1

>  <RF_canvas>
1

>  <DNN_canvas>
1

$$$$
CHEMBL1270334
  MOE2015           3D

 51 53  0  0  1  0  0  0  0  0999 V2000
   30.1520    9.6100   23.1510 C   0  0  0  0  0  0  0  0  0  0  0  0
   28.9180    9.8470   22.5020 O   0  0  0  0  0  0  0  0  0  0  0  0
   29.0890   10.0630   21.1040 C   0  0  0  0  0  0  0  0  0  0  0  0
   27.7710   10.2920   20.5250 C   0  0  0  0  0  0  0  0  0  0  0  0
   26.6420   10.4890   20.1710 C   0  0  0  0  0  0  0  0  0  0  0  0
   25.2730   10.7420   19.8770 C   0  0  0  0  0  0  0  0  0  0  0  0
   24.3000   10.4500   20.8310 C   0  0  0  0  0  0  0  0  0  0  0  0
   22.9440   10.7260   20.6010 C   0  0  0  0  0  0  0  0  0  0  0  0
   22.6030   11.3180   19.3780 C   0  0  0  0  0  0  0  0  0  0  0  0
   23.5680   11.5930   18.4170 C   0  0  0  0  0  0  0  0  0  0  0  0
   24.8940   11.3060   18.6740 C   0  0  0  0  0  0  0  0  0  0  0  0
   25.8040   11.5960   17.7430 F   0  0  0  0  0  0  0  0  0  0  0  0
   21.8950   10.4660   21.6990 C   0  0  1  0  0  0  0  0  0  0  0  0
   22.2650    9.2880   22.5510 N   0  0  0  0  0  0  0  0  0  0  0  0
   22.4760    9.7430   23.7430 C   0  0  0  0  0  0  0  0  0  0  0  0
   22.8270    8.9330   24.7630 N   0  0  0  0  0  0  0  0  0  0  0  0
   22.3270   11.0710   23.9050 N   0  0  0  0  0  0  0  0  0  0  0  0
   22.5200   11.8320   25.1130 C   0  0  0  0  0  0  0  0  0  0  0  0
   21.9590   11.6170   22.7130 C   0  0  0  0  0  0  0  0  0  0  0  0
   21.7680   12.8030   22.4810 O   0  0  0  0  0  0  0  0  0  0  0  0
   20.4920   10.2170   21.1280 C   0  0  0  0  0  0  0  0  0  0  0  0
   20.1920    8.9730   20.5630 C   0  0  0  0  0  0  0  0  0  0  0  0
   18.9610    8.7210   19.9630 C   0  0  0  0  0  0  0  0  0  0  0  0
   17.9900    9.7130   19.9120 C   0  0  0  0  0  0  0  0  0  0  0  0
   16.7710    9.5880   19.3070 O   0  0  0  0  0  0  0  0  0  0  0  0
   16.2890    8.2760   19.0880 C   0  0  0  0  0  0  0  0  0  0  0  0
   14.9690    8.3730   18.8050 F   0  0  0  0  0  0  0  0  0  0  0  0
   16.3760    7.5550   20.2270 F   0  0  0  0  0  0  0  0  0  0  0  0
   18.2710   10.9640   20.4700 C   0  0  0  0  0  0  0  0  0  0  0  0
   17.2580   12.0670   20.4130 C   0  0  0  0  0  0  0  0  0  0  0  0
   19.5090   11.2040   21.0700 C   0  0  0  0  0  0  0  0  0  0  0  0
   29.9580    9.4520   24.2160 H   0  0  0  0  0  0  0  0  0  0  0  0
   30.8160   10.4740   23.0440 H   0  0  0  0  0  0  0  0  0  0  0  0
   30.6340    8.7140   22.7490 H   0  0  0  0  0  0  0  0  0  0  0  0
   29.7340   10.9340   20.9420 H   0  0  0  0  0  0  0  0  0  0  0  0
   29.5580    9.1840   20.6490 H   0  0  0  0  0  0  0  0  0  0  0  0
   24.6140   10.0110   21.7780 H   0  0  0  0  0  0  0  0  0  0  0  0
   21.5740   11.5860   19.1480 H   0  0  0  0  0  0  0  0  0  0  0  0
   23.2880   12.0460   17.4700 H   0  0  0  0  0  0  0  0  0  0  0  0
   22.9440    7.9440   24.5800 H   0  0  0  0  0  0  0  0  0  0  0  0
   22.9820    9.2630   25.7040 H   0  0  0  0  0  0  0  0  0  0  0  0
   23.5460   11.6850   25.4630 H   0  0  0  0  0  0  0  0  0  0  0  0
   21.8390   11.4530   25.8810 H   0  0  0  0  0  0  0  0  0  0  0  0
   22.3350   12.8960   24.9490 H   0  0  0  0  0  0  0  0  0  0  0  0
   20.9390    8.1790   20.5760 H   0  0  0  0  0  0  0  0  0  0  0  0
   18.8040    7.7360   19.5330 H   0  0  0  0  0  0  0  0  0  0  0  0
   16.8000    7.7710   18.2620 H   0  0  0  0  0  0  0  0  0  0  0  0
   17.5970   12.9590   20.9500 H   0  0  0  0  0  0  0  0  0  0  0  0
   16.3180   11.7470   20.8760 H   0  0  0  0  0  0  0  0  0  0  0  0
   17.0700   12.3560   19.3740 H   0  0  0  0  0  0  0  0  0  0  0  0
   19.6980   12.1980   21.4700 H   0  0  0  0  0  0  0  0  0  0  0  0
  1  2  1  0  0  0  0
  1 32  1  0  0  0  0
  1 33  1  0  0  0  0
  1 34  1  0  0  0  0
  2  3  1  0  0  0  0
  3  4  1  0  0  0  0
  3 35  1  0  0  0  0
  3 36  1  0  0  0  0
  4  5  3  0  0  0  0
  5  6  1  0  0  0  0
  6  7  2  0  0  0  0
  6 11  1  0  0  0  0
  7  8  1  0  0  0  0
  7 37  1  0  0  0  0
  8  9  2  0  0  0  0
  8 13  1  0  0  0  0
  9 10  1  0  0  0  0
  9 38  1  0  0  0  0
 10 11  2  0  0  0  0
 10 39  1  0  0  0  0
 11 12  1  0  0  0  0
 13 14  1  0  0  0  0
 13 19  1  0  0  0  0
 13 21  1  0  0  0  0
 14 15  2  0  0  0  0
 15 16  1  0  0  0  0
 15 17  1  0  0  0  0
 16 40  1  0  0  0  0
 16 41  1  0  0  0  0
 17 18  1  0  0  0  0
 17 19  1  0  0  0  0
 18 42  1  0  0  0  0
 18 43  1  0  0  0  0
 18 44  1  0  0  0  0
 19 20  2  0  0  0  0
 21 22  2  0  0  0  0
 21 31  1  0  0  0  0
 22 23  1  0  0  0  0
 22 45  1  0  0  0  0
 23 24  2  0  0  0  0
 23 46  1  0  0  0  0
 24 25  1  0  0  0  0
 24 29  1  0  0  0  0
 25 26  1  0  0  0  0
 26 27  1  0  0  0  0
 26 28  1  0  0  0  0
 26 47  1  0  0  0  0
 29 30  1  0  0  0  0
 29 31  2  0  0  0  0
 30 48  1  0  0  0  0
 30 49  1  0  0  0  0
 30 50  1  0  0  0  0
 31 51  1  0  0  0  0
M  END
>  <PARENT_CMPD_ID>
CHEMBL1270334

>  <STANDARD_TYPE>
IC50

>  <RELATION>
=

>  <STANDARD_VALUE>
13

>  <STANDARD_UNITS>
nM

>  <COMPOUND_KEY>
87

>  <PUBMED_ID>
20880704

>  <JOURNAL>
Bioorg. Med. Chem. Lett.

>  <YEAR>
2010

>  <VOLUME>
20

>  <FIRST_PAGE>
6597

>  <Company>
Pfizer

>  <idx>
439

>  <Model>
Valid

>  <target>
7.8860564

>  <des_pred_mlr>
6.6558199

>  <RF_Canvas>
7.5395637

>  <DNN_Canvas>
7.4535217

>  <pred_CoMFA>
7.7195001

>  <pred_COMSIA>
7.1960001

>  <pred_abm5>
7.6926894

>  <pred_ff8>
6.2813621

>  <pred_gau6>
7.7591028

>  <CID>
BACE_439

>  <active>
1

>  <des_class_bayes>
1

>  <maacs_class_bayes>
1

>  <radial_class_bayes>
1

>  <dend_class_bayes>
1

>  <molprint_class_bayes>
1

>  <RF_canvas>
1

>  <DNN_canvas>
1

$$$$
21078556_6l
  MOE2015           3D

 82 85  0  0  1  0  0  0  0  0999 V2000
   24.7930   12.3640   18.6380 C   0  0  0  0  0  0  0  0  0  0  0  0
   24.9810   17.2760   25.3830 C   0  0  0  0  0  0  0  0  0  0  0  0
   23.5220   12.7160   19.0360 C   0  0  0  0  0  0  0  0  0  0  0  0
   25.3990   11.2900   19.2540 C   0  0  0  0  0  0  0  0  0  0  0  0
   26.3270   17.4950   25.1860 C   0  0  0  0  0  0  0  0  0  0  0  0
   26.7930   18.3870   25.5950 H   0  0  0  0  0  0  0  0  0  0  0  0
   17.2350   13.4630   25.1080 C   0  0  0  0  0  0  0  0  0  0  0  0
   24.3370   16.1560   24.8830 C   0  0  0  0  0  0  0  0  0  0  0  0
   22.8580   12.0120   20.0280 C   0  0  0  0  0  0  0  0  0  0  0  0
   24.7640   10.5760   20.2550 C   0  0  0  0  0  0  0  0  0  0  0  0
   18.2370   13.0670   25.9850 C   0  0  0  0  0  0  0  0  0  0  0  0
   27.0830   16.5780   24.4720 C   0  0  0  0  0  0  0  0  0  0  0  0
   16.4810   12.5130   24.4320 C   0  0  0  0  0  0  0  0  0  0  0  0
   17.7090   10.7690   25.5400 C   0  0  0  0  0  0  0  0  0  0  0  0
   25.9010   13.5550   22.9070 C   0  0  0  0  0  0  0  0  0  0  0  0
   25.0780   15.2210   24.1510 C   0  0  0  0  0  0  0  0  0  0  0  0
   24.7510   13.9960   23.5230 C   0  0  0  0  0  0  0  0  0  0  0  0
   23.4810   10.9360   20.6610 C   0  0  0  0  0  0  0  0  0  0  0  0
   18.4920   11.7130   26.2010 C   0  0  0  0  0  0  0  0  0  0  0  0
   26.4390   15.4440   23.9640 C   0  0  0  0  0  0  0  0  0  0  0  0
   16.7250   11.1610   24.6400 C   0  0  0  0  0  0  0  0  0  0  0  0
   23.4620   13.3250   23.4890 C   0  0  0  0  0  0  0  0  0  0  0  0
   28.2880   14.2040   22.8810 C   0  0  0  0  0  0  0  0  0  0  0  0
   29.3290    9.4510   22.1990 C   0  0  0  0  0  0  0  0  0  0  0  0
   15.5510   10.3840   22.7530 C   0  0  0  0  0  0  0  0  0  0  0  0
   22.8100   10.1970   21.7920 C   0  0  0  0  0  0  0  0  0  0  0  0
   19.6250   11.2700   27.0780 C   0  0  0  0  0  0  0  0  0  0  0  0
   29.1970   10.9500   22.3220 C   0  0  0  0  0  0  0  0  0  0  0  0
   29.6770   11.6660   21.0670 C   0  0  0  0  0  0  0  0  0  0  0  0
   29.8060   13.1720   21.2740 C   0  0  0  0  0  0  0  0  0  0  0  0
   21.3550   11.3160   25.2370 C   0  0  0  0  0  0  0  0  0  0  0  0
   22.4300   11.1220   22.9670 C   0  0  3  0  0  0  0  0  0  0  0  0
   21.9190   10.3470   24.1970 C   0  0  3  0  0  0  0  0  0  0  0  0
   26.9400   14.3990   23.2100 N   0  0  0  0  0  0  0  0  0  0  0  0
   23.5620   11.9640   23.3120 N   0  0  0  0  0  0  0  0  0  0  0  0
   20.7050   10.5390   26.3450 N   0  3  0  0  0  0  0  0  0  0  0  0
   28.5380   13.8200   21.5700 N   0  0  0  0  0  0  0  0  0  0  0  0
   27.6590   14.0550   20.4400 C   0  0  0  0  0  0  0  0  0  0  0  0
   28.2350   14.5020   19.6240 H   0  0  0  0  0  0  0  0  0  0  0  0
   26.8460   14.7430   20.6820 H   0  0  0  0  0  0  0  0  0  0  0  0
   27.2550   13.1010   20.1100 H   0  0  0  0  0  0  0  0  0  0  0  0
   22.3880   13.9040   23.6180 O   0  0  0  0  0  0  0  0  0  0  0  0
   29.1060   14.3380   23.7780 O   0  0  0  0  0  0  0  0  0  0  0  0
   20.8980    9.4260   23.8060 O   0  0  0  0  0  0  0  0  0  0  0  0
   16.0360   10.1370   24.0650 O   0  0  0  0  0  0  0  0  0  0  0  0
   25.3030   12.9180   17.8590 H   0  0  0  0  0  0  0  0  0  0  0  0
   24.2720   18.1680   26.0780 F   0  0  0  0  0  0  0  0  0  0  0  0
   22.9210   13.7570   18.4600 F   0  0  0  0  0  0  0  0  0  0  0  0
   26.6380   10.9470   18.8990 F   0  0  0  0  0  0  0  0  0  0  0  0
   17.0420   14.5210   24.9470 H   0  0  0  0  0  0  0  0  0  0  0  0
   23.2740   16.0240   25.0560 H   0  0  0  0  0  0  0  0  0  0  0  0
   21.8570   12.3290   20.3050 H   0  0  0  0  0  0  0  0  0  0  0  0
   25.2900    9.7430   20.7140 H   0  0  0  0  0  0  0  0  0  0  0  0
   18.8240   13.8340   26.4860 H   0  0  0  0  0  0  0  0  0  0  0  0
   28.1470   16.7470   24.3170 H   0  0  0  0  0  0  0  0  0  0  0  0
   15.6940   12.8490   23.7640 H   0  0  0  0  0  0  0  0  0  0  0  0
   17.8640    9.7040   25.7040 H   0  0  0  0  0  0  0  0  0  0  0  0
   26.0860   12.6720   22.3100 H   0  0  0  0  0  0  0  0  0  0  0  0
   28.9700    8.9610   23.1100 H   0  0  0  0  0  0  0  0  0  0  0  0
   30.3720    9.1560   22.0470 H   0  0  0  0  0  0  0  0  0  0  0  0
   28.7400    9.0730   21.3580 H   0  0  0  0  0  0  0  0  0  0  0  0
   15.2600    9.4240   22.3160 H   0  0  0  0  0  0  0  0  0  0  0  0
   16.3220   10.8250   22.1120 H   0  0  0  0  0  0  0  0  0  0  0  0
   14.6600   11.0200   22.7840 H   0  0  0  0  0  0  0  0  0  0  0  0
   23.4780    9.4080   22.1600 H   0  0  0  0  0  0  0  0  0  0  0  0
   21.9210    9.6910   21.3970 H   0  0  0  0  0  0  0  0  0  0  0  0
   19.2580   10.5870   27.8520 H   0  0  0  0  0  0  0  0  0  0  0  0
   20.1080   12.1160   27.5800 H   0  0  0  0  0  0  0  0  0  0  0  0
   29.7790   11.2820   23.1890 H   0  0  0  0  0  0  0  0  0  0  0  0
   28.1500   11.2000   22.5220 H   0  0  0  0  0  0  0  0  0  0  0  0
   28.9970   11.4490   20.2350 H   0  0  0  0  0  0  0  0  0  0  0  0
   30.6620   11.2780   20.7780 H   0  0  0  0  0  0  0  0  0  0  0  0
   30.2270   13.6370   20.3740 H   0  0  0  0  0  0  0  0  0  0  0  0
   30.5220   13.3610   22.0820 H   0  0  0  0  0  0  0  0  0  0  0  0
   20.5940   11.9470   24.7720 H   0  0  0  0  0  0  0  0  0  0  0  0
   22.1210   11.9440   25.7000 H   0  0  0  0  0  0  0  0  0  0  0  0
   21.6150   11.7690   22.6150 H   0  0  0  0  0  0  0  0  0  0  0  0
   22.7310    9.7600   24.6430 H   0  0  0  0  0  0  0  0  0  0  0  0
   24.4750   11.5290   23.3950 H   0  0  0  0  0  0  0  0  0  0  0  0
   20.3060    9.6920   25.9040 H   0  0  0  0  0  0  0  0  0  0  0  0
   21.4160   10.2030   27.0070 H   0  0  0  0  0  0  0  0  0  0  0  0
   20.2520    9.8690   23.2240 H   0  0  0  0  0  0  0  0  0  0  0  0
  1  3  2  0  0  0  0
  1  4  1  0  0  0  0
  1 46  1  0  0  0  0
  2  5  2  0  0  0  0
  2  8  1  0  0  0  0
  2 47  1  0  0  0  0
  3  9  1  0  0  0  0
  3 48  1  0  0  0  0
  4 10  2  0  0  0  0
  4 49  1  0  0  0  0
  5  6  1  0  0  0  0
  5 12  1  0  0  0  0
  7 11  2  0  0  0  0
  7 13  1  0  0  0  0
  7 50  1  0  0  0  0
  8 16  2  0  0  0  0
  8 51  1  0  0  0  0
  9 18  2  0  0  0  0
  9 52  1  0  0  0  0
 10 18  1  0  0  0  0
 10 53  1  0  0  0  0
 11 19  1  0  0  0  0
 11 54  1  0  0  0  0
 12 20  2  0  0  0  0
 12 55  1  0  0  0  0
 13 21  2  0  0  0  0
 13 56  1  0  0  0  0
 14 19  2  0  0  0  0
 14 21  1  0  0  0  0
 14 57  1  0  0  0  0
 15 17  2  0  0  0  0
 15 34  1  0  0  0  0
 15 58  1  0  0  0  0
 16 17  1  0  0  0  0
 16 20  1  0  0  0  0
 17 22  1  0  0  0  0
 18 26  1  0  0  0  0
 19 27  1  0  0  0  0
 20 34  1  0  0  0  0
 21 45  1  0  0  0  0
 22 35  1  0  0  0  0
 22 42  2  0  0  0  0
 23 34  1  0  0  0  0
 23 37  1  0  0  0  0
 23 43  2  0  0  0  0
 24 28  1  0  0  0  0
 24 59  1  0  0  0  0
 24 60  1  0  0  0  0
 24 61  1  0  0  0  0
 25 45  1  0  0  0  0
 25 62  1  0  0  0  0
 25 63  1  0  0  0  0
 25 64  1  0  0  0  0
 26 32  1  0  0  0  0
 26 65  1  0  0  0  0
 26 66  1  0  0  0  0
 27 36  1  0  0  0  0
 27 67  1  0  0  0  0
 27 68  1  0  0  0  0
 28 29  1  0  0  0  0
 28 69  1  0  0  0  0
 28 70  1  0  0  0  0
 29 30  1  0  0  0  0
 29 71  1  0  0  0  0
 29 72  1  0  0  0  0
 30 37  1  0  0  0  0
 30 73  1  0  0  0  0
 30 74  1  0  0  0  0
 31 33  1  0  0  0  0
 31 36  1  0  0  0  0
 31 75  1  0  0  0  0
 31 76  1  0  0  0  0
 32 33  1  0  0  0  0
 32 35  1  0  0  0  0
 32 77  1  0  0  0  0
 33 44  1  0  0  0  0
 33 78  1  0  0  0  0
 35 79  1  0  0  0  0
 36 80  1  0  0  0  0
 36 81  1  0  0  0  0
 37 38  1  0  0  0  0
 38 39  1  0  0  0  0
 38 40  1  0  0  0  0
 38 41  1  0  0  0  0
 44 82  1  0  0  0  0
M  CHG  1  36   1
M  END
>  <PARENT_CMPD_ID>
21078556_6l

>  <STANDARD_TYPE>
IC50

>  <RELATION>
=

>  <STANDARD_VALUE>
13

>  <STANDARD_UNITS>
nM

>  <COMPOUND_KEY>
6l

>  <PUBMED_ID>
21078556

>  <JOURNAL>
Bioorg.Med.Chem.Lett.

>  <YEAR>
2011

>  <VOLUME>
21

>  <FIRST_PAGE>
537

>  <Company>
BMS

>  <idx>
440

>  <Model>
Valid

>  <target>
7.8860564

>  <des_pred_mlr>
7.9421902

>  <RF_Canvas>
7.7641082

>  <DNN_Canvas>
7.3545475

>  <pred_CoMFA>
7.8786001

>  <pred_COMSIA>
8.3815002

>  <pred_abm5>
7.8807163

>  <pred_ff8>
6.9403138

>  <pred_gau6>
8.0316954

>  <CID>
BACE_440

>  <active>
1

>  <des_class_bayes>
1

>  <maacs_class_bayes>
1

>  <radial_class_bayes>
1

>  <dend_class_bayes>
1

>  <molprint_class_bayes>
1

>  <RF_canvas>
1

>  <DNN_canvas>
1

$$$$
23590342_14q
  MOE2015           3D

 46 48  0  0  1  0  0  0  0  0999 V2000
   22.5980   12.2040   23.3640 C   0  0  0  0  0  0  0  0  0  0  0  0
   21.5600   11.7840   22.3630 C   0  0  0  0  0  0  0  0  0  0  0  0
   22.9120   11.1640   24.2970 O   0  0  0  0  0  0  0  0  0  0  0  0
   22.6720    9.8790   23.9620 C   0  0  0  0  0  0  0  0  0  0  0  0
   22.2240    9.4610   22.8370 N   0  0  0  0  0  0  0  0  0  0  0  0
   21.9200   10.4200   21.7610 C   0  0  3  0  0  0  0  0  0  0  0  0
   23.0870   10.5580   20.7740 C   0  0  0  0  0  0  0  0  0  0  0  0
   24.4010   10.2460   21.1550 C   0  0  0  0  0  0  0  0  0  0  0  0
   25.4930   10.4680   20.3100 C   0  0  0  0  0  0  0  0  0  0  0  0
   25.2640   10.9620   19.0320 C   0  0  0  0  0  0  0  0  0  0  0  0
   23.9740   11.2510   18.6200 C   0  0  0  0  0  0  0  0  0  0  0  0
   22.9120   11.0610   19.4870 C   0  0  0  0  0  0  0  0  0  0  0  0
   21.7000   11.4030   19.0500 F   0  0  0  0  0  0  0  0  0  0  0  0
   22.9730    9.0380   24.9660 N   0  0  0  0  0  0  0  0  0  0  0  0
   20.6760    9.8320   21.0710 C   0  0  0  0  0  0  0  0  0  0  0  0
   26.7700   10.1950   20.8270 N   0  0  0  0  0  0  0  0  0  0  0  0
   27.9890   10.4940   20.2520 C   0  0  0  0  0  0  0  0  0  0  0  0
   29.1230   10.0540   21.0990 C   0  0  0  0  0  0  0  0  0  0  0  0
   28.1480   11.0920   19.1990 O   0  0  0  0  0  0  0  0  0  0  0  0
   28.7880    9.2390   22.1300 N   0  0  0  0  0  0  0  0  0  0  0  0
   29.8050    8.8790   22.9380 C   0  0  0  0  0  0  0  0  0  0  0  0
   31.1000    9.3050   22.7310 C   0  0  0  0  0  0  0  0  0  0  0  0
   31.4360   10.1070   21.6990 N   0  0  0  0  0  0  0  0  0  0  0  0
   30.4180   10.4750   20.8820 C   0  0  0  0  0  0  0  0  0  0  0  0
   32.0440    8.8730   23.6270 O   0  0  0  0  0  0  0  0  0  0  0  0
   20.3660   11.7170   23.0010 F   0  0  0  0  0  0  0  0  0  0  0  0
   21.4250   12.7330   21.4160 F   0  0  0  0  0  0  0  0  0  0  0  0
   33.3550    9.3490   23.3580 C   0  0  0  0  0  0  0  0  0  0  0  0
   22.2260   13.0550   23.9450 H   0  0  0  0  0  0  0  0  0  0  0  0
   23.5260   12.5320   22.8860 H   0  0  0  0  0  0  0  0  0  0  0  0
   24.5940    9.8480   22.1480 H   0  0  0  0  0  0  0  0  0  0  0  0
   26.0720   11.1340   18.3280 H   0  0  0  0  0  0  0  0  0  0  0  0
   23.7910   11.6440   17.6240 H   0  0  0  0  0  0  0  0  0  0  0  0
   22.8290    8.0450   24.8450 H   0  0  0  0  0  0  0  0  0  0  0  0
   23.3430    9.3910   25.8360 H   0  0  0  0  0  0  0  0  0  0  0  0
   19.9200    9.5380   21.8100 H   0  0  0  0  0  0  0  0  0  0  0  0
   20.9260    8.9310   20.4980 H   0  0  0  0  0  0  0  0  0  0  0  0
   20.1870   10.5410   20.3960 H   0  0  0  0  0  0  0  0  0  0  0  0
   26.8340    9.7300   21.7330 H   0  0  0  0  0  0  0  0  0  0  0  0
   29.5510    8.2280   23.7680 H   0  0  0  0  0  0  0  0  0  0  0  0
   30.6820   11.1280   20.0580 H   0  0  0  0  0  0  0  0  0  0  0  0
   33.3810   10.4450   23.3980 H   0  0  0  0  0  0  0  0  0  0  0  0
   33.6910    9.0110   22.3700 H   0  0  0  0  0  0  0  0  0  0  0  0
   34.2420    8.8040   24.3850 C   0  0  0  0  0  0  0  0  0  0  0  0
   34.9530    8.3470   25.2350 C   0  0  0  0  0  0  0  0  0  0  0  0
   35.5840    7.9400   25.9910 H   0  0  0  0  0  0  0  0  0  0  0  0
  1  2  1  0  0  0  0
  1  3  1  0  0  0  0
  1 29  1  0  0  0  0
  1 30  1  0  0  0  0
  2  6  1  0  0  0  0
  2 26  1  0  0  0  0
  2 27  1  0  0  0  0
  3  4  1  0  0  0  0
  4  5  2  0  0  0  0
  4 14  1  0  0  0  0
  5  6  1  0  0  0  0
  6  7  1  0  0  0  0
  6 15  1  0  0  0  0
  7  8  1  0  0  0  0
  7 12  2  0  0  0  0
  8  9  2  0  0  0  0
  8 31  1  0  0  0  0
  9 10  1  0  0  0  0
  9 16  1  0  0  0  0
 10 11  2  0  0  0  0
 10 32  1  0  0  0  0
 11 12  1  0  0  0  0
 11 33  1  0  0  0  0
 12 13  1  0  0  0  0
 14 34  1  0  0  0  0
 14 35  1  0  0  0  0
 15 36  1  0  0  0  0
 15 37  1  0  0  0  0
 15 38  1  0  0  0  0
 16 17  1  0  0  0  0
 16 39  1  0  0  0  0
 17 18  1  0  0  0  0
 17 19  2  0  0  0  0
 18 20  1  0  0  0  0
 18 24  2  0  0  0  0
 20 21  2  0  0  0  0
 21 22  1  0  0  0  0
 21 40  1  0  0  0  0
 22 23  2  0  0  0  0
 22 25  1  0  0  0  0
 23 24  1  0  0  0  0
 24 41  1  0  0  0  0
 25 28  1  0  0  0  0
 28 42  1  0  0  0  0
 28 43  1  0  0  0  0
 28 44  1  0  0  0  0
 44 45  3  0  0  0  0
 45 46  1  0  0  0  0
M  END
>  <PARENT_CMPD_ID>
23590342_14q

>  <STANDARD_TYPE>
IC50

>  <RELATION>
=

>  <STANDARD_VALUE>
0.013

>  <STANDARD_UNITS>
uM

>  <COMPOUND_KEY>
14q

>  <PUBMED_ID>
23590342

>  <JOURNAL>
J.Med.Chem.

>  <YEAR>
2013

>  <VOLUME>
56

>  <FIRST_PAGE>
3980

>  <Company>
Roche

>  <idx>
441

>  <Model>
Valid

>  <target>
7.8860564

>  <des_pred_mlr>
6.6609101

>  <RF_Canvas>
7.0622344

>  <DNN_Canvas>
6.7932034

>  <pred_CoMFA>
6.7501001

>  <pred_COMSIA>
6.7221999

>  <pred_abm5>
6.7062469

>  <pred_ff8>
5.3954163

>  <pred_gau6>
6.8237395

>  <CID>
BACE_441

>  <active>
1

>  <des_class_bayes>
1

>  <maacs_class_bayes>
1

>  <radial_class_bayes>
0

>  <dend_class_bayes>
1

>  <molprint_class_bayes>
1

>  <RF_canvas>
1

>  <DNN_canvas>
1

$$$$
23981898_17i
  MOE2015           3D

 73 75  0  0  1  0  0  0  0  0999 V2000
   28.6290    9.0410   21.0080 F   0  0  0  0  0  0  0  0  0  0  0  0
   29.2770   10.2110   20.8610 C   0  0  0  0  0  0  0  0  0  0  0  0
   30.0780   10.3540   21.9340 F   0  0  0  0  0  0  0  0  0  0  0  0
   30.0690   10.1110   19.7810 F   0  0  0  0  0  0  0  0  0  0  0  0
   28.3020   11.3650   20.7500 C   0  0  3  0  0  0  0  0  0  0  0  0
   27.5210   11.1930   19.5530 O   0  0  0  0  0  0  0  0  0  0  0  0
   26.1600   11.2250   19.7230 C   0  0  0  0  0  0  0  0  0  0  0  0
   25.4320   12.0320   18.8450 C   0  0  0  0  0  0  0  0  0  0  0  0
   24.0450   12.0540   18.9770 C   0  0  0  0  0  0  0  0  0  0  0  0
   23.3870   11.3130   19.9500 C   0  0  0  0  0  0  0  0  0  0  0  0
   24.1110   10.5070   20.8260 C   0  0  0  0  0  0  0  0  0  0  0  0
   25.5010   10.4430   20.6800 C   0  0  0  0  0  0  0  0  0  0  0  0
   23.4260    9.7850   21.9640 C   0  0  0  0  0  0  0  0  0  0  0  0
   22.8700   10.7530   23.0280 C   0  0  3  0  0  0  0  0  0  0  0  0
   22.1910   10.0240   24.2130 C   0  0  3  0  0  0  0  0  0  0  0  0
   21.5640   11.0090   25.2310 C   0  0  3  0  0  0  0  0  0  0  0  0
   22.5640   11.9990   25.8070 C   0  0  0  0  0  0  0  0  0  0  0  0
   23.2770   13.0410   24.5210 S   0  0  0  0  0  0  0  0  0  0  0  0
   23.9700   11.6780   23.5550 C   0  0  0  0  0  0  0  0  0  0  0  0
   22.1550   13.6250   23.7190 O   0  0  0  0  0  0  0  0  0  0  0  0
   20.9720   10.1820   26.3630 N   0  3  0  0  0  0  0  0  0  0  0  0
   20.0070   10.8860   27.2750 C   0  0  0  0  0  0  0  0  0  0  0  0
   18.8190   11.4550   26.5650 C   0  0  0  0  0  0  0  0  0  0  0  0
   17.9710   10.5860   25.8900 C   0  0  0  0  0  0  0  0  0  0  0  0
   16.9220   11.0380   25.0860 C   0  0  0  0  0  0  0  0  0  0  0  0
   16.6860   12.4100   25.0420 C   0  0  0  0  0  0  0  0  0  0  0  0
   17.5020   13.2930   25.7460 C   0  0  0  0  0  0  0  0  0  0  0  0
   18.5720   12.8200   26.4960 C   0  0  0  0  0  0  0  0  0  0  0  0
   16.1620   10.0020   24.2880 C   0  0  0  0  0  0  0  0  0  0  0  0
   15.2860    9.1490   25.1990 C   0  0  0  0  0  0  0  0  0  0  0  0
   15.3020   10.5790   23.1730 C   0  0  0  0  0  0  0  0  0  0  0  0
   17.1700    9.1650   23.6790 O   0  0  0  0  0  0  0  0  0  0  0  0
   21.1640    9.1380   23.7580 O   0  0  0  0  0  0  0  0  0  0  0  0
   23.3210   12.8240   18.1570 F   0  0  0  0  0  0  0  0  0  0  0  0
   26.0740   12.7950   17.8800 N   0  0  0  0  0  0  0  0  0  0  0  0
   29.0830   12.6740   20.6440 C   0  0  0  0  0  0  0  0  0  0  0  0
   28.1630   13.7660   20.6200 O   0  0  0  0  0  0  0  0  0  0  0  0
   28.8140   15.0150   20.7850 C   0  0  0  0  0  0  0  0  0  0  0  0
   27.6760   11.4120   21.6500 H   0  0  0  0  0  0  0  0  0  0  0  0
   22.3060   11.3900   20.0220 H   0  0  0  0  0  0  0  0  0  0  0  0
   26.0760    9.7850   21.3270 H   0  0  0  0  0  0  0  0  0  0  0  0
   24.1240    9.0800   22.4350 H   0  0  0  0  0  0  0  0  0  0  0  0
   22.6160    9.1750   21.5450 H   0  0  0  0  0  0  0  0  0  0  0  0
   22.0950   11.3510   22.5290 H   0  0  0  0  0  0  0  0  0  0  0  0
   22.9350    9.3990   24.7230 H   0  0  0  0  0  0  0  0  0  0  0  0
   20.7240   11.5190   24.7460 H   0  0  0  0  0  0  0  0  0  0  0  0
   23.3810   11.4890   26.3300 H   0  0  0  0  0  0  0  0  0  0  0  0
   22.0870   12.6780   26.5210 H   0  0  0  0  0  0  0  0  0  0  0  0
   24.5210   12.1690   22.7500 H   0  0  0  0  0  0  0  0  0  0  0  0
   24.6970   11.1380   24.1710 H   0  0  0  0  0  0  0  0  0  0  0  0
   21.7090    9.7310   26.9210 H   0  0  0  0  0  0  0  0  0  0  0  0
   20.4820    9.4010   25.8930 H   0  0  0  0  0  0  0  0  0  0  0  0
   20.5700   11.6510   27.8190 H   0  0  0  0  0  0  0  0  0  0  0  0
   19.6820   10.1390   28.0080 H   0  0  0  0  0  0  0  0  0  0  0  0
   18.1530    9.5120   25.9400 H   0  0  0  0  0  0  0  0  0  0  0  0
   15.8780   12.8260   24.4460 H   0  0  0  0  0  0  0  0  0  0  0  0
   17.3100   14.3620   25.6900 H   0  0  0  0  0  0  0  0  0  0  0  0
   19.2110   13.5350   27.0090 H   0  0  0  0  0  0  0  0  0  0  0  0
   14.5390    9.7520   25.7270 H   0  0  0  0  0  0  0  0  0  0  0  0
   15.8790    8.6120   25.9490 H   0  0  0  0  0  0  0  0  0  0  0  0
   14.7600    8.3760   24.6250 H   0  0  0  0  0  0  0  0  0  0  0  0
   14.4850   11.2020   23.5540 H   0  0  0  0  0  0  0  0  0  0  0  0
   14.8570    9.7800   22.5680 H   0  0  0  0  0  0  0  0  0  0  0  0
   15.9020   11.1810   22.4790 H   0  0  0  0  0  0  0  0  0  0  0  0
   16.7060    8.4870   23.1590 H   0  0  0  0  0  0  0  0  0  0  0  0
   20.5550    9.6170   23.1630 H   0  0  0  0  0  0  0  0  0  0  0  0
   25.5420   13.3600   17.2320 H   0  0  0  0  0  0  0  0  0  0  0  0
   27.0860   12.7770   17.8400 H   0  0  0  0  0  0  0  0  0  0  0  0
   29.6690   12.7040   19.7180 H   0  0  0  0  0  0  0  0  0  0  0  0
   29.7570   12.7820   21.5010 H   0  0  0  0  0  0  0  0  0  0  0  0
   28.0630   15.8060   20.7220 H   0  0  0  0  0  0  0  0  0  0  0  0
   29.5540   15.1700   19.9940 H   0  0  0  0  0  0  0  0  0  0  0  0
   29.2950   15.0690   21.7670 H   0  0  0  0  0  0  0  0  0  0  0  0
  1  2  1  0  0  0  0
  2  3  1  0  0  0  0
  2  4  1  0  0  0  0
  2  5  1  0  0  0  0
  5  6  1  0  0  0  0
  5 36  1  0  0  0  0
  5 39  1  0  0  0  0
  6  7  1  0  0  0  0
  7  8  1  0  0  0  0
  7 12  2  0  0  0  0
  8  9  2  0  0  0  0
  8 35  1  0  0  0  0
  9 10  1  0  0  0  0
  9 34  1  0  0  0  0
 10 11  2  0  0  0  0
 10 40  1  0  0  0  0
 11 12  1  0  0  0  0
 11 13  1  0  0  0  0
 12 41  1  0  0  0  0
 13 14  1  0  0  0  0
 13 42  1  0  0  0  0
 13 43  1  0  0  0  0
 14 15  1  0  0  0  0
 14 19  1  0  0  0  0
 14 44  1  0  0  0  0
 15 16  1  0  0  0  0
 15 33  1  0  0  0  0
 15 45  1  0  0  0  0
 16 17  1  0  0  0  0
 16 21  1  0  0  0  0
 16 46  1  0  0  0  0
 17 18  1  0  0  0  0
 17 47  1  0  0  0  0
 17 48  1  0  0  0  0
 18 19  1  0  0  0  0
 18 20  2  0  0  0  0
 19 49  1  0  0  0  0
 19 50  1  0  0  0  0
 21 22  1  0  0  0  0
 21 51  1  0  0  0  0
 21 52  1  0  0  0  0
 22 23  1  0  0  0  0
 22 53  1  0  0  0  0
 22 54  1  0  0  0  0
 23 24  1  0  0  0  0
 23 28  2  0  0  0  0
 24 25  2  0  0  0  0
 24 55  1  0  0  0  0
 25 26  1  0  0  0  0
 25 29  1  0  0  0  0
 26 27  2  0  0  0  0
 26 56  1  0  0  0  0
 27 28  1  0  0  0  0
 27 57  1  0  0  0  0
 28 58  1  0  0  0  0
 29 30  1  0  0  0  0
 29 31  1  0  0  0  0
 29 32  1  0  0  0  0
 30 59  1  0  0  0  0
 30 60  1  0  0  0  0
 30 61  1  0  0  0  0
 31 62  1  0  0  0  0
 31 63  1  0  0  0  0
 31 64  1  0  0  0  0
 32 65  1  0  0  0  0
 33 66  1  0  0  0  0
 35 67  1  0  0  0  0
 35 68  1  0  0  0  0
 36 37  1  0  0  0  0
 36 69  1  0  0  0  0
 36 70  1  0  0  0  0
 37 38  1  0  0  0  0
 38 71  1  0  0  0  0
 38 72  1  0  0  0  0
 38 73  1  0  0  0  0
M  CHG  1  21   1
M  END
>  <PARENT_CMPD_ID>
23981898_17i

>  <STANDARD_TYPE>
IC50

>  <RELATION>
=

>  <STANDARD_VALUE>
0.013

>  <STANDARD_UNITS>
uM

>  <COMPOUND_KEY>
17i

>  <PUBMED_ID>
23981898

>  <JOURNAL>
Bioorg.Med.Chem.Lett.

>  <YEAR>
2013

>  <VOLUME>
23

>  <FIRST_PAGE>
5300

>  <Company>
Novartis

>  <idx>
442

>  <Model>
Valid

>  <target>
7.8860564

>  <des_pred_mlr>
7.0939298

>  <RF_Canvas>
7.7408719

>  <DNN_Canvas>
7.9923196

>  <pred_CoMFA>
8.3191004

>  <pred_COMSIA>
7.2638998

>  <pred_abm5>
7.4911366

>  <pred_ff8>
8.1964445

>  <pred_gau6>
7.7275867

>  <CID>
BACE_442

>  <active>
1

>  <des_class_bayes>
1

>  <maacs_class_bayes>
1

>  <radial_class_bayes>
1

>  <dend_class_bayes>
1

>  <molprint_class_bayes>
1

>  <RF_canvas>
1

>  <DNN_canvas>
1

$$$$
22325942_18
  MOE2015           3D

 57 61  0  0  1  0  0  0  0  0999 V2000
   28.8670    8.8500   22.2780 N   0  0  0  0  0  0  0  0  0  0  0  0
   29.8480    9.7670   22.1390 C   0  0  0  0  0  0  0  0  0  0  0  0
   30.7600    9.5070   22.6640 H   0  0  0  0  0  0  0  0  0  0  0  0
   29.7270   10.9340   21.3930 C   0  0  0  0  0  0  0  0  0  0  0  0
   30.6780   11.8990   21.2230 O   0  0  0  0  0  0  0  0  0  0  0  0
   31.9230   11.6890   21.8780 C   0  0  0  0  0  0  0  0  0  0  0  0
   32.5690   12.5420   21.6480 H   0  0  0  0  0  0  0  0  0  0  0  0
   32.4170   10.7860   21.5050 H   0  0  0  0  0  0  0  0  0  0  0  0
   31.7960   11.6500   22.9650 H   0  0  0  0  0  0  0  0  0  0  0  0
   28.5140   11.1790   20.7510 C   0  0  0  0  0  0  0  0  0  0  0  0
   28.3930   12.1010   20.1860 H   0  0  0  0  0  0  0  0  0  0  0  0
   27.4530   10.2820   20.8760 C   0  0  0  0  0  0  0  0  0  0  0  0
   27.7020    9.1410   21.6460 C   0  0  0  0  0  0  0  0  0  0  0  0
   26.9310    8.3860   21.7870 H   0  0  0  0  0  0  0  0  0  0  0  0
   26.1340   10.5550   20.2960 C   0  0  0  0  0  0  0  0  0  0  0  0
   25.9560   10.9700   18.9800 C   0  0  0  0  0  0  0  0  0  0  0  0
   26.8130   11.0920   18.3210 H   0  0  0  0  0  0  0  0  0  0  0  0
   24.6820   11.2230   18.4720 C   0  0  0  0  0  0  0  0  0  0  0  0
   24.5680   11.5450   17.4400 H   0  0  0  0  0  0  0  0  0  0  0  0
   23.5570   11.0760   19.2750 C   0  0  0  0  0  0  0  0  0  0  0  0
   22.5850   11.2980   18.8420 H   0  0  0  0  0  0  0  0  0  0  0  0
   23.6860   10.6680   20.6000 C   0  0  0  0  0  0  0  0  0  0  0  0
   24.9840   10.4210   21.0800 C   0  0  0  0  0  0  0  0  0  0  0  0
   25.1030   10.1260   22.1230 H   0  0  0  0  0  0  0  0  0  0  0  0
   22.5070   10.5380   21.5690 C   0  0  3  0  0  0  0  0  0  0  0  0
   22.5460   11.6910   22.6060 C   0  0  0  0  0  0  0  0  0  0  0  0
   22.4990   12.9430   22.3080 N   0  0  0  0  0  0  0  0  0  0  0  0
   22.5970   13.8510   23.4630 C   0  0  0  0  0  0  0  0  0  0  0  0
   22.0100   14.7480   23.2380 H   0  0  0  0  0  0  0  0  0  0  0  0
   23.6380   14.1760   23.5740 H   0  0  0  0  0  0  0  0  0  0  0  0
   22.0890   13.2500   24.7650 C   0  0  0  0  0  0  0  0  0  0  0  0
   22.6910   11.8880   25.0330 C   0  0  0  0  0  0  0  0  0  0  0  0
   22.1300   11.4020   25.8380 H   0  0  0  0  0  0  0  0  0  0  0  0
   23.7280   11.9930   25.3710 H   0  0  0  0  0  0  0  0  0  0  0  0
   22.6510   11.0970   23.8310 N   0  0  0  0  0  0  0  0  0  0  0  0
   22.7300    9.7500   23.6960 C   0  0  0  0  0  0  0  0  0  0  0  0
   22.6930    9.3080   22.4670 N   0  0  0  0  0  0  0  0  0  0  0  0
   22.8730    8.9410   24.7570 N   0  0  0  0  0  0  0  0  0  0  0  0
   22.9700    7.9460   24.5960 H   0  0  0  0  0  0  0  0  0  0  0  0
   22.8890    9.2630   25.7130 H   0  0  0  0  0  0  0  0  0  0  0  0
   22.3650   14.0850   25.7890 F   0  0  0  0  0  0  0  0  0  0  0  0
   20.7420   13.1370   24.7170 F   0  0  0  0  0  0  0  0  0  0  0  0
   21.1370   10.4130   20.9100 C   0  0  0  0  0  0  0  0  0  0  0  0
   20.6570    9.1410   20.5780 C   0  0  0  0  0  0  0  0  0  0  0  0
   21.2580    8.2550   20.7740 H   0  0  0  0  0  0  0  0  0  0  0  0
   19.4040    8.9790   20.0200 C   0  0  0  0  0  0  0  0  0  0  0  0
   19.0330    7.9840   19.7920 H   0  0  0  0  0  0  0  0  0  0  0  0
   18.6310   10.0950   19.7470 C   0  0  0  0  0  0  0  0  0  0  0  0
   17.4010    9.8670   19.2180 O   0  0  0  0  0  0  0  0  0  0  0  0
   17.1970   10.5570   17.9910 C   0  0  0  0  0  0  0  0  0  0  0  0
   16.1830    9.9330   17.3370 F   0  0  0  0  0  0  0  0  0  0  0  0
   18.0790   10.5820   17.3400 H   0  0  0  0  0  0  0  0  0  0  0  0
   16.7670   11.8150   18.2630 F   0  0  0  0  0  0  0  0  0  0  0  0
   19.0840   11.3680   20.0600 C   0  0  0  0  0  0  0  0  0  0  0  0
   18.4670   12.2440   19.8840 H   0  0  0  0  0  0  0  0  0  0  0  0
   20.3370   11.5220   20.6280 C   0  0  0  0  0  0  0  0  0  0  0  0
   20.6690   12.5340   20.8440 H   0  0  0  0  0  0  0  0  0  0  0  0
  1  2  1  0  0  0  0
  1 13  2  0  0  0  0
  2  3  1  0  0  0  0
  2  4  2  0  0  0  0
  4  5  1  0  0  0  0
  4 10  1  0  0  0  0
  5  6  1  0  0  0  0
  6  7  1  0  0  0  0
  6  8  1  0  0  0  0
  6  9  1  0  0  0  0
 10 11  1  0  0  0  0
 10 12  2  0  0  0  0
 12 13  1  0  0  0  0
 12 15  1  0  0  0  0
 13 14  1  0  0  0  0
 15 16  1  0  0  0  0
 15 23  2  0  0  0  0
 16 17  1  0  0  0  0
 16 18  2  0  0  0  0
 18 19  1  0  0  0  0
 18 20  1  0  0  0  0
 20 21  1  0  0  0  0
 20 22  2  0  0  0  0
 22 23  1  0  0  0  0
 22 25  1  0  0  0  0
 23 24  1  0  0  0  0
 25 26  1  0  0  0  0
 25 37  1  0  0  0  0
 25 43  1  0  0  0  0
 26 27  2  0  0  0  0
 26 35  1  0  0  0  0
 27 28  1  0  0  0  0
 28 29  1  0  0  0  0
 28 30  1  0  0  0  0
 28 31  1  0  0  0  0
 31 32  1  0  0  0  0
 31 41  1  0  0  0  0
 31 42  1  0  0  0  0
 32 33  1  0  0  0  0
 32 34  1  0  0  0  0
 32 35  1  0  0  0  0
 35 36  1  0  0  0  0
 36 37  2  0  0  0  0
 36 38  1  0  0  0  0
 38 39  1  0  0  0  0
 38 40  1  0  0  0  0
 43 44  1  0  0  0  0
 43 56  2  0  0  0  0
 44 45  1  0  0  0  0
 44 46  2  0  0  0  0
 46 47  1  0  0  0  0
 46 48  1  0  0  0  0
 48 49  1  0  0  0  0
 48 54  2  0  0  0  0
 49 50  1  0  0  0  0
 50 51  1  0  0  0  0
 50 52  1  0  0  0  0
 50 53  1  0  0  0  0
 54 55  1  0  0  0  0
 54 56  1  0  0  0  0
 56 57  1  0  0  0  0
M  END
>  <PARENT_CMPD_ID>
22325942_18

>  <STANDARD_TYPE>
IC50

>  <RELATION>
=

>  <COMPOUND_KEY>
18

>  <PUBMED_ID>
22325942

>  <JOURNAL>
Bioorg. Med. Chem. Lett.

>  <YEAR>
2012

>  <VOLUME>
22

>  <FIRST_PAGE>
1854

>  <Company>
AstraZeneca

>  <idx>
443

>  <Model>
Valid

>  <target>
7.8600001

>  <des_pred_mlr>
7.7316799

>  <RF_Canvas>
7.4940166

>  <DNN_Canvas>
7.4328489

>  <pred_CoMFA>
7.3288002

>  <pred_COMSIA>
7.4907999

>  <pred_abm5>
7.5081739

>  <pred_ff8>
5.8381877

>  <pred_gau6>
7.8407707

>  <CID>
BACE_443

>  <active>
1

>  <des_class_bayes>
1

>  <maacs_class_bayes>
1

>  <radial_class_bayes>
0

>  <dend_class_bayes>
1

>  <molprint_class_bayes>
1

>  <RF_canvas>
1

>  <DNN_canvas>
1

$$$$
mcl886_20
  MOE2015           3D

 78 81  0  0  1  0  0  0  0  0999 V2000
   18.6630   12.1800   29.4710 C   0  0  0  0  0  0  0  0  0  0  0  0
   19.6220   12.6620   30.5540 C   0  0  0  0  0  0  0  0  0  0  0  0
   20.2680   13.5770   29.5180 C   0  0  0  0  0  0  0  0  0  0  0  0
   19.6570   12.6980   28.4040 C   0  0  0  0  0  0  0  0  0  0  0  0
   20.6350   11.6990   27.8110 C   0  0  0  0  0  0  0  0  0  0  0  0
   19.0700   13.4660   27.3410 O   0  0  0  0  0  0  0  0  0  0  0  0
   18.4450   12.7510   26.3560 C   0  0  0  0  0  0  0  0  0  0  0  0
   17.4990   13.4360   25.6960 N   0  0  0  0  0  0  0  0  0  0  0  0
   16.8560   12.7850   24.7140 C   0  0  0  0  0  0  0  0  0  0  0  0
   17.0890   11.4610   24.3730 C   0  0  0  0  0  0  0  0  0  0  0  0
   16.2970   10.7990   23.2870 C   0  0  0  0  0  0  0  0  0  0  0  0
   14.9760   10.1310   23.7190 C   0  0  0  0  0  0  0  0  0  0  0  0
   14.0470   11.1090   24.4400 C   0  0  0  0  0  0  0  0  0  0  0  0
   15.2330    8.9260   24.6230 C   0  0  0  0  0  0  0  0  0  0  0  0
   14.2630    9.6420   22.4540 C   0  0  0  0  0  0  0  0  0  0  0  0
   18.0780   10.7850   25.0800 C   0  0  0  0  0  0  0  0  0  0  0  0
   18.8000   11.4390   26.0780 C   0  0  0  0  0  0  0  0  0  0  0  0
   19.8920   10.7620   26.8530 C   0  0  3  0  0  0  0  0  0  0  0  0
   20.9070   10.0400   25.9990 N   0  3  0  0  0  0  0  0  0  0  0  0
   21.6280   10.8610   24.9630 C   0  0  0  0  0  0  0  0  0  0  0  0
   22.1310    9.9170   23.8710 C   0  0  3  0  0  0  0  0  0  0  0  0
   21.0260    9.1140   23.4420 O   0  0  0  0  0  0  0  0  0  0  0  0
   22.7530   10.6900   22.6950 C   0  0  3  0  0  0  0  0  0  0  0  0
   23.8900   11.4890   23.1360 N   0  0  0  0  0  0  0  0  0  0  0  0
   23.7880   12.8440   23.3490 C   0  0  0  0  0  0  0  0  0  0  0  0
   25.0780   13.4920   23.7550 C   0  0  0  0  0  0  0  0  0  0  0  0
   22.7350   13.4630   23.2500 O   0  0  0  0  0  0  0  0  0  0  0  0
   23.1720    9.7630   21.5360 C   0  0  0  0  0  0  0  0  0  0  0  0
   23.7550   10.5380   20.3850 C   0  0  0  0  0  0  0  0  0  0  0  0
   25.0780   10.3630   19.9920 C   0  0  0  0  0  0  0  0  0  0  0  0
   25.6220   11.1410   18.9700 C   0  0  0  0  0  0  0  0  0  0  0  0
   24.8490   12.1010   18.3280 C   0  0  0  0  0  0  0  0  0  0  0  0
   25.2350   12.9350   17.3220 O   0  0  0  0  0  0  0  0  0  0  0  0
   26.5800   12.8360   16.9120 C   0  0  0  0  0  0  0  0  0  0  0  0
   26.8060   13.7350   15.9320 F   0  0  0  0  0  0  0  0  0  0  0  0
   26.8430   11.6060   16.4290 F   0  0  0  0  0  0  0  0  0  0  0  0
   27.4110   13.1070   17.9380 F   0  0  0  0  0  0  0  0  0  0  0  0
   23.5280   12.2620   18.7130 C   0  0  0  0  0  0  0  0  0  0  0  0
   22.9810   11.4840   19.7210 C   0  0  0  0  0  0  0  0  0  0  0  0
   17.7000   12.7060   29.4740 H   0  0  0  0  0  0  0  0  0  0  0  0
   18.4650   11.1040   29.4770 H   0  0  0  0  0  0  0  0  0  0  0  0
   20.2920   11.8790   30.9270 H   0  0  0  0  0  0  0  0  0  0  0  0
   19.1600   13.1650   31.4080 H   0  0  0  0  0  0  0  0  0  0  0  0
   21.3610   13.6250   29.5590 H   0  0  0  0  0  0  0  0  0  0  0  0
   19.8800   14.6030   29.5380 H   0  0  0  0  0  0  0  0  0  0  0  0
   21.1400   11.1100   28.5870 H   0  0  0  0  0  0  0  0  0  0  0  0
   21.4220   12.2570   27.2880 H   0  0  0  0  0  0  0  0  0  0  0  0
   16.1050   13.3780   24.1980 H   0  0  0  0  0  0  0  0  0  0  0  0
   16.9390   10.0610   22.7860 H   0  0  0  0  0  0  0  0  0  0  0  0
   16.0900   11.5530   22.5140 H   0  0  0  0  0  0  0  0  0  0  0  0
   14.4460   11.4150   25.4130 H   0  0  0  0  0  0  0  0  0  0  0  0
   13.0680   10.6540   24.6310 H   0  0  0  0  0  0  0  0  0  0  0  0
   13.8760   12.0110   23.8430 H   0  0  0  0  0  0  0  0  0  0  0  0
   15.6640    9.2210   25.5850 H   0  0  0  0  0  0  0  0  0  0  0  0
   15.9210    8.2140   24.1520 H   0  0  0  0  0  0  0  0  0  0  0  0
   14.3030    8.3880   24.8420 H   0  0  0  0  0  0  0  0  0  0  0  0
   14.0320   10.4740   21.7780 H   0  0  0  0  0  0  0  0  0  0  0  0
   13.3180    9.1420   22.6940 H   0  0  0  0  0  0  0  0  0  0  0  0
   14.8820    8.9270   21.9000 H   0  0  0  0  0  0  0  0  0  0  0  0
   18.2730    9.7420   24.8430 H   0  0  0  0  0  0  0  0  0  0  0  0
   19.4190    9.9700   27.4480 H   0  0  0  0  0  0  0  0  0  0  0  0
   20.4390    9.2850   25.4680 H   0  0  0  0  0  0  0  0  0  0  0  0
   21.5890    9.5550   26.5970 H   0  0  0  0  0  0  0  0  0  0  0  0
   22.4410   11.3850   25.4720 H   0  0  0  0  0  0  0  0  0  0  0  0
   20.9160   11.5780   24.5470 H   0  0  0  0  0  0  0  0  0  0  0  0
   22.8740    9.2330   24.3010 H   0  0  0  0  0  0  0  0  0  0  0  0
   20.5000    9.6060   22.7840 H   0  0  0  0  0  0  0  0  0  0  0  0
   21.9790   11.3680   22.3120 H   0  0  0  0  0  0  0  0  0  0  0  0
   24.7910   11.0370   23.2680 H   0  0  0  0  0  0  0  0  0  0  0  0
   25.9200   13.0530   23.2110 H   0  0  0  0  0  0  0  0  0  0  0  0
   25.2290   13.3550   24.8290 H   0  0  0  0  0  0  0  0  0  0  0  0
   25.0380   14.5610   23.5270 H   0  0  0  0  0  0  0  0  0  0  0  0
   22.3130    9.1890   21.1670 H   0  0  0  0  0  0  0  0  0  0  0  0
   23.9030    9.0290   21.8990 H   0  0  0  0  0  0  0  0  0  0  0  0
   25.7090    9.6260   20.4830 H   0  0  0  0  0  0  0  0  0  0  0  0
   26.6610   10.9620   18.7100 H   0  0  0  0  0  0  0  0  0  0  0  0
   22.9070   13.0050   18.2170 H   0  0  0  0  0  0  0  0  0  0  0  0
   21.9400   11.6420   19.9890 H   0  0  0  0  0  0  0  0  0  0  0  0
  1  2  1  0  0  0  0
  1  4  1  0  0  0  0
  1 40  1  0  0  0  0
  1 41  1  0  0  0  0
  2  3  1  0  0  0  0
  2 42  1  0  0  0  0
  2 43  1  0  0  0  0
  3  4  1  0  0  0  0
  3 44  1  0  0  0  0
  3 45  1  0  0  0  0
  4  5  1  0  0  0  0
  4  6  1  0  0  0  0
  5 18  1  0  0  0  0
  5 46  1  0  0  0  0
  5 47  1  0  0  0  0
  6  7  1  0  0  0  0
  7  8  1  0  0  0  0
  7 17  2  0  0  0  0
  8  9  2  0  0  0  0
  9 10  1  0  0  0  0
  9 48  1  0  0  0  0
 10 11  1  0  0  0  0
 10 16  2  0  0  0  0
 11 12  1  0  0  0  0
 11 49  1  0  0  0  0
 11 50  1  0  0  0  0
 12 13  1  0  0  0  0
 12 14  1  0  0  0  0
 12 15  1  0  0  0  0
 13 51  1  0  0  0  0
 13 52  1  0  0  0  0
 13 53  1  0  0  0  0
 14 54  1  0  0  0  0
 14 55  1  0  0  0  0
 14 56  1  0  0  0  0
 15 57  1  0  0  0  0
 15 58  1  0  0  0  0
 15 59  1  0  0  0  0
 16 17  1  0  0  0  0
 16 60  1  0  0  0  0
 17 18  1  0  0  0  0
 18 19  1  0  0  0  0
 18 61  1  0  0  0  0
 19 20  1  0  0  0  0
 19 62  1  0  0  0  0
 19 63  1  0  0  0  0
 20 21  1  0  0  0  0
 20 64  1  0  0  0  0
 20 65  1  0  0  0  0
 21 22  1  0  0  0  0
 21 23  1  0  0  0  0
 21 66  1  0  0  0  0
 22 67  1  0  0  0  0
 23 24  1  0  0  0  0
 23 28  1  0  0  0  0
 23 68  1  0  0  0  0
 24 25  1  0  0  0  0
 24 69  1  0  0  0  0
 25 26  1  0  0  0  0
 25 27  2  0  0  0  0
 26 70  1  0  0  0  0
 26 71  1  0  0  0  0
 26 72  1  0  0  0  0
 28 29  1  0  0  0  0
 28 73  1  0  0  0  0
 28 74  1  0  0  0  0
 29 30  1  0  0  0  0
 29 39  2  0  0  0  0
 30 31  2  0  0  0  0
 30 75  1  0  0  0  0
 31 32  1  0  0  0  0
 31 76  1  0  0  0  0
 32 33  1  0  0  0  0
 32 38  2  0  0  0  0
 33 34  1  0  0  0  0
 34 35  1  0  0  0  0
 34 36  1  0  0  0  0
 34 37  1  0  0  0  0
 38 39  1  0  0  0  0
 38 77  1  0  0  0  0
 39 78  1  0  0  0  0
M  CHG  1  19   1
M  END
>  <PARENT_CMPD_ID>
mcl886_20

>  <STANDARD_TYPE>
IC50

>  <RELATION>
=

>  <STANDARD_VALUE>
14

>  <STANDARD_UNITS>
nM

>  <COMPOUND_KEY>
20

>  <PUBMED_ID>
24900403

>  <JOURNAL>
ACS Med. Chem. Lett.

>  <YEAR>
2012

>  <VOLUME>
3

>  <FIRST_PAGE>
886

>  <Company>
Amgen

>  <idx>
444

>  <Model>
Valid

>  <target>
7.8538718

>  <des_pred_mlr>
7.5984998

>  <RF_Canvas>
7.9096599

>  <DNN_Canvas>
7.8476467

>  <pred_CoMFA>
7.7708998

>  <pred_COMSIA>
7.5288

>  <pred_abm5>
8.1337452

>  <pred_ff8>
7.071682

>  <pred_gau6>
7.7887578

>  <CID>
BACE_444

>  <active>
1

>  <des_class_bayes>
0

>  <maacs_class_bayes>
1

>  <radial_class_bayes>
1

>  <dend_class_bayes>
1

>  <molprint_class_bayes>
1

>  <RF_canvas>
1

>  <DNN_canvas>
1

$$$$
CHEMBL540685
  MOE2015           3D

 78 82  0  0  1  0  0  0  0  0999 V2000
   29.5630   11.3580   21.3150 C   0  0  0  0  0  0  0  0  0  0  0  0
   29.2520   12.7770   20.8780 C   0  0  0  0  0  0  0  0  0  0  0  0
   29.0620   13.6890   22.0340 C   0  0  0  0  0  0  0  0  0  0  0  0
   30.0240   14.5020   22.5870 C   0  0  0  0  0  0  0  0  0  0  0  0
   29.5370   14.9960   23.7580 N   0  0  0  0  0  0  0  0  0  0  0  0
   30.3380   15.6770   24.7570 C   0  0  0  0  0  0  0  0  0  0  0  0
   29.8050   17.0050   25.2140 C   0  0  0  0  0  0  0  0  0  0  0  0
   28.3590   16.9330   26.2640 S   0  0  0  0  0  0  0  0  0  0  0  0
   28.7420   17.0800   27.6490 O   0  0  0  0  0  0  0  0  0  0  0  0
   27.3460   17.8040   25.7120 O   0  0  0  0  0  0  0  0  0  0  0  0
   27.8010   15.3750   26.1900 N   0  0  0  0  0  0  0  0  0  0  0  0
   27.3330   14.8800   24.9480 C   0  0  0  0  0  0  0  0  0  0  0  0
   26.0780   14.2930   24.8990 C   0  0  0  0  0  0  0  0  0  0  0  0
   25.7480   13.4310   23.8630 C   0  0  0  0  0  0  0  0  0  0  0  0
   26.6190   13.2270   22.7890 C   0  0  0  0  0  0  0  0  0  0  0  0
   27.8880   13.8350   22.8230 C   0  0  0  0  0  0  0  0  0  0  0  0
   28.2100   14.6750   23.8850 C   0  0  0  0  0  0  0  0  0  0  0  0
   24.7700   12.3710   24.1840 C   0  0  0  0  0  0  0  0  0  0  0  0
   24.8160   11.8600   25.2990 O   0  0  0  0  0  0  0  0  0  0  0  0
   23.9780   11.9060   23.1700 N   0  0  0  0  0  0  0  0  0  0  0  0
   23.5220   10.5220   23.0910 C   0  0  3  0  0  0  0  0  0  0  0  0
   23.0630   10.1720   21.6600 C   0  0  0  0  0  0  0  0  0  0  0  0
   24.0920   10.5570   20.6230 C   0  0  0  0  0  0  0  0  0  0  0  0
   23.9340   11.7170   19.8630 C   0  0  0  0  0  0  0  0  0  0  0  0
   24.9200   12.1190   18.9730 C   0  0  0  0  0  0  0  0  0  0  0  0
   26.0680   11.3570   18.8180 C   0  0  0  0  0  0  0  0  0  0  0  0
   26.2290   10.1950   19.5570 C   0  0  0  0  0  0  0  0  0  0  0  0
   25.2480    9.7970   20.4560 C   0  0  0  0  0  0  0  0  0  0  0  0
   22.6600    9.9070   24.2420 C   0  0  2  0  0  0  0  0  0  0  0  0
   21.4930    9.1880   23.7910 O   0  0  0  0  0  0  0  0  0  0  0  0
   22.0850   10.8970   25.2660 C   0  0  0  0  0  0  0  0  0  0  0  0
   21.2420   10.0930   26.2260 N   0  3  0  0  0  0  0  0  0  0  0  0
   20.3240   10.8750   27.0930 C   0  0  0  0  0  0  0  0  0  0  0  0
   19.2300   11.5960   26.3640 C   0  0  0  0  0  0  0  0  0  0  0  0
   18.3140   10.9080   25.5740 C   0  0  0  0  0  0  0  0  0  0  0  0
   17.3110   11.6000   24.9040 C   0  0  0  0  0  0  0  0  0  0  0  0
   17.2000   12.9820   25.0270 C   0  0  0  0  0  0  0  0  0  0  0  0
   18.0920   13.6810   25.8260 C   0  0  0  0  0  0  0  0  0  0  0  0
   18.0960   15.0300   26.0450 O   0  0  0  0  0  0  0  0  0  0  0  0
   17.0140   15.7710   25.4940 C   0  0  0  0  0  0  0  0  0  0  0  0
   19.1020   12.9820   26.4830 C   0  0  0  0  0  0  0  0  0  0  0  0
   29.7070   10.7150   20.4400 H   0  0  0  0  0  0  0  0  0  0  0  0
   28.7500   10.9350   21.9140 H   0  0  0  0  0  0  0  0  0  0  0  0
   30.4770   11.3190   21.9180 H   0  0  0  0  0  0  0  0  0  0  0  0
   28.3520   12.7810   20.2530 H   0  0  0  0  0  0  0  0  0  0  0  0
   30.0680   13.1450   20.2440 H   0  0  0  0  0  0  0  0  0  0  0  0
   31.0520   14.6690   22.2880 H   0  0  0  0  0  0  0  0  0  0  0  0
   30.4620   14.9790   25.5940 H   0  0  0  0  0  0  0  0  0  0  0  0
   31.3320   15.8290   24.3200 H   0  0  0  0  0  0  0  0  0  0  0  0
   29.5400   17.6280   24.3530 H   0  0  0  0  0  0  0  0  0  0  0  0
   30.5690   17.5360   25.7930 H   0  0  0  0  0  0  0  0  0  0  0  0
   27.2320   15.1440   27.0080 H   0  0  0  0  0  0  0  0  0  0  0  0
   25.4280   14.3500   25.7710 H   0  0  0  0  0  0  0  0  0  0  0  0
   26.4060   12.4800   22.0300 H   0  0  0  0  0  0  0  0  0  0  0  0
   23.7860   12.5370   22.3980 H   0  0  0  0  0  0  0  0  0  0  0  0
   24.4730    9.9780   23.2130 H   0  0  0  0  0  0  0  0  0  0  0  0
   22.8650    9.0960   21.5700 H   0  0  0  0  0  0  0  0  0  0  0  0
   22.1170   10.6830   21.4390 H   0  0  0  0  0  0  0  0  0  0  0  0
   23.0370   12.3250   19.9600 H   0  0  0  0  0  0  0  0  0  0  0  0
   24.7890   13.0270   18.3900 H   0  0  0  0  0  0  0  0  0  0  0  0
   26.8380   11.6690   18.1180 H   0  0  0  0  0  0  0  0  0  0  0  0
   27.1290    9.5980   19.4370 H   0  0  0  0  0  0  0  0  0  0  0  0
   25.4000    8.8890   21.0350 H   0  0  0  0  0  0  0  0  0  0  0  0
   23.2740    9.1710   24.7770 H   0  0  0  0  0  0  0  0  0  0  0  0
   21.0180    9.7280   23.1300 H   0  0  0  0  0  0  0  0  0  0  0  0
   21.4220   11.6120   24.7700 H   0  0  0  0  0  0  0  0  0  0  0  0
   22.7980   11.4180   25.8930 H   0  0  0  0  0  0  0  0  0  0  0  0
   20.7300    9.4150   25.6360 H   0  0  0  0  0  0  0  0  0  0  0  0
   21.8690    9.5270   26.8110 H   0  0  0  0  0  0  0  0  0  0  0  0
   19.8820   10.1610   27.7970 H   0  0  0  0  0  0  0  0  0  0  0  0
   20.9520   11.5620   27.6730 H   0  0  0  0  0  0  0  0  0  0  0  0
   18.3560    9.8260   25.4710 H   0  0  0  0  0  0  0  0  0  0  0  0
   16.5990   11.0570   24.2860 H   0  0  0  0  0  0  0  0  0  0  0  0
   16.4010   13.4790   24.4880 H   0  0  0  0  0  0  0  0  0  0  0  0
   17.1320   16.8140   25.8020 H   0  0  0  0  0  0  0  0  0  0  0  0
   16.0520   15.4170   25.8800 H   0  0  0  0  0  0  0  0  0  0  0  0
   17.0350   15.7430   24.3990 H   0  0  0  0  0  0  0  0  0  0  0  0
   19.7970   13.5480   27.1030 H   0  0  0  0  0  0  0  0  0  0  0  0
  1  2  1  0  0  0  0
  1 42  1  0  0  0  0
  1 43  1  0  0  0  0
  1 44  1  0  0  0  0
  2  3  1  0  0  0  0
  2 45  1  0  0  0  0
  2 46  1  0  0  0  0
  3  4  2  0  0  0  0
  3 16  1  0  0  0  0
  4  5  1  0  0  0  0
  4 47  1  0  0  0  0
  5  6  1  0  0  0  0
  5 17  1  0  0  0  0
  6  7  1  0  0  0  0
  6 48  1  0  0  0  0
  6 49  1  0  0  0  0
  7  8  1  0  0  0  0
  7 50  1  0  0  0  0
  7 51  1  0  0  0  0
  8  9  2  0  0  0  0
  8 10  2  0  0  0  0
  8 11  1  0  0  0  0
 11 12  1  0  0  0  0
 11 52  1  0  0  0  0
 12 13  1  0  0  0  0
 12 17  2  0  0  0  0
 13 14  2  0  0  0  0
 13 53  1  0  0  0  0
 14 15  1  0  0  0  0
 14 18  1  0  0  0  0
 15 16  2  0  0  0  0
 15 54  1  0  0  0  0
 16 17  1  0  0  0  0
 18 19  2  0  0  0  0
 18 20  1  0  0  0  0
 20 21  1  0  0  0  0
 20 55  1  0  0  0  0
 21 22  1  0  0  0  0
 21 29  1  0  0  0  0
 21 56  1  0  0  0  0
 22 23  1  0  0  0  0
 22 57  1  0  0  0  0
 22 58  1  0  0  0  0
 23 24  1  0  0  0  0
 23 28  2  0  0  0  0
 24 25  2  0  0  0  0
 24 59  1  0  0  0  0
 25 26  1  0  0  0  0
 25 60  1  0  0  0  0
 26 27  2  0  0  0  0
 26 61  1  0  0  0  0
 27 28  1  0  0  0  0
 27 62  1  0  0  0  0
 28 63  1  0  0  0  0
 29 30  1  0  0  0  0
 29 31  1  0  0  0  0
 29 64  1  0  0  0  0
 30 65  1  0  0  0  0
 31 32  1  0  0  0  0
 31 66  1  0  0  0  0
 31 67  1  0  0  0  0
 32 33  1  0  0  0  0
 32 68  1  0  0  0  0
 32 69  1  0  0  0  0
 33 34  1  0  0  0  0
 33 70  1  0  0  0  0
 33 71  1  0  0  0  0
 34 35  1  0  0  0  0
 34 41  2  0  0  0  0
 35 36  2  0  0  0  0
 35 72  1  0  0  0  0
 36 37  1  0  0  0  0
 36 73  1  0  0  0  0
 37 38  2  0  0  0  0
 37 74  1  0  0  0  0
 38 39  1  0  0  0  0
 38 41  1  0  0  0  0
 39 40  1  0  0  0  0
 40 75  1  0  0  0  0
 40 76  1  0  0  0  0
 40 77  1  0  0  0  0
 41 78  1  0  0  0  0
M  CHG  1  32   1
M  END
>  <PARENT_CMPD_ID>
CHEMBL540685

>  <STANDARD_TYPE>
IC50

>  <RELATION>
=

>  <STANDARD_VALUE>
14

>  <STANDARD_UNITS>
nM

>  <COMPOUND_KEY>
34

>  <PUBMED_ID>
19477642

>  <JOURNAL>
Bioorg. Med. Chem. Lett.

>  <YEAR>
2009

>  <VOLUME>
19

>  <FIRST_PAGE>
3669

>  <Company>
GSK

>  <idx>
445

>  <Model>
Valid

>  <target>
7.8538718

>  <des_pred_mlr>
7.2168398

>  <RF_Canvas>
8.011837

>  <DNN_Canvas>
7.7233272

>  <pred_CoMFA>
7.1285

>  <pred_COMSIA>
6.9474001

>  <pred_abm5>
6.7175612

>  <pred_ff8>
6.7740459

>  <pred_gau6>
7.0236831

>  <CID>
BACE_445

>  <active>
1

>  <des_class_bayes>
1

>  <maacs_class_bayes>
1

>  <radial_class_bayes>
1

>  <dend_class_bayes>
1

>  <molprint_class_bayes>
1

>  <RF_canvas>
1

>  <DNN_canvas>
1

$$$$
CHEMBL609988
  MOE2015           3D

 77 80  0  0  1  0  0  0  0  0999 V2000
   20.9450   13.2850   28.5680 C   0  0  0  0  0  0  0  0  0  0  0  0
   21.4950   12.4980   27.4380 C   0  0  0  0  0  0  0  0  0  0  0  0
   20.4650   11.5160   26.8280 C   0  0  3  0  0  0  0  0  0  0  0  0
   19.3460   12.1570   26.0010 C   0  0  0  0  0  0  0  0  0  0  0  0
   19.2670   13.5300   25.7660 C   0  0  0  0  0  0  0  0  0  0  0  0
   17.2180   13.2560   24.5370 C   0  0  0  0  0  0  0  0  0  0  0  0
   16.1770   10.9470   24.1760 C   0  0  0  0  0  0  0  0  0  0  0  0
   14.9630   11.6840   23.5920 C   0  0  0  0  0  0  0  0  0  0  0  0
   23.1240   10.7800   22.6640 C   0  0  3  0  0  0  0  0  0  0  0  0
   24.2490   12.9710   22.9830 C   0  0  0  0  0  0  0  0  0  0  0  0
   23.5590    9.7900   21.5690 C   0  0  0  0  0  0  0  0  0  0  0  0
   25.5770   10.1880   20.1120 C   0  0  0  0  0  0  0  0  0  0  0  0
   27.4970   10.5950   18.8270 F   0  0  0  0  0  0  0  0  0  0  0  0
   26.2300   10.8940   19.1140 C   0  0  0  0  0  0  0  0  0  0  0  0
   25.6000   11.9040   18.4180 C   0  0  0  0  0  0  0  0  0  0  0  0
   24.2890   12.1970   18.7270 C   0  0  0  0  0  0  0  0  0  0  0  0
   23.6600   13.1740   18.0740 F   0  0  0  0  0  0  0  0  0  0  0  0
   23.6100   11.4980   19.7100 C   0  0  0  0  0  0  0  0  0  0  0  0
   24.2550   10.4920   20.4300 C   0  0  0  0  0  0  0  0  0  0  0  0
   24.2620   11.5970   23.0850 N   0  0  0  0  0  0  0  0  0  0  0  0
   25.5490   13.6150   23.3640 C   0  0  0  0  0  0  0  0  0  0  0  0
   23.2660   13.6210   22.6490 O   0  0  0  0  0  0  0  0  0  0  0  0
   22.4530   10.0980   23.8690 C   0  0  3  0  0  0  0  0  0  0  0  0
   21.2310    9.4360   23.5240 O   0  0  0  0  0  0  0  0  0  0  0  0
   22.1030   11.1530   24.9100 C   0  0  0  0  0  0  0  0  0  0  0  0
   21.2720   10.5310   25.9910 N   0  3  0  0  0  0  0  0  0  0  0  0
   19.8610   12.8760   29.3140 C   0  0  0  0  0  0  0  0  0  0  0  0
   19.1240   11.6100   28.9900 C   0  0  0  0  0  0  0  0  0  0  0  0
   19.8780   10.7120   28.0140 C   0  0  0  0  0  0  0  0  0  0  0  0
   18.2140   14.0720   25.0460 C   0  0  0  0  0  0  0  0  0  0  0  0
   17.2510   11.8780   24.7300 C   0  0  0  0  0  0  0  0  0  0  0  0
   18.3340   11.3550   25.4530 C   0  0  0  0  0  0  0  0  0  0  0  0
   15.6450   10.0220   25.2790 C   0  0  0  0  0  0  0  0  0  0  0  0
   16.7890   10.0970   23.0570 C   0  0  0  0  0  0  0  0  0  0  0  0
   22.3570   11.9390   27.8310 H   0  0  0  0  0  0  0  0  0  0  0  0
   21.8920   13.1790   26.6740 H   0  0  0  0  0  0  0  0  0  0  0  0
   20.0090   14.2310   26.1340 H   0  0  0  0  0  0  0  0  0  0  0  0
   16.4190   13.7370   23.9800 H   0  0  0  0  0  0  0  0  0  0  0  0
   14.4850   12.3310   24.3370 H   0  0  0  0  0  0  0  0  0  0  0  0
   14.2000   10.9790   23.2410 H   0  0  0  0  0  0  0  0  0  0  0  0
   15.2350   12.3030   22.7290 H   0  0  0  0  0  0  0  0  0  0  0  0
   22.3720   11.4430   22.2160 H   0  0  0  0  0  0  0  0  0  0  0  0
   22.6900    9.2490   21.1730 H   0  0  0  0  0  0  0  0  0  0  0  0
   24.2260    9.0350   22.0030 H   0  0  0  0  0  0  0  0  0  0  0  0
   26.1210    9.4090   20.6400 H   0  0  0  0  0  0  0  0  0  0  0  0
   26.1230   12.4540   17.6450 H   0  0  0  0  0  0  0  0  0  0  0  0
   22.5790   11.7710   19.9160 H   0  0  0  0  0  0  0  0  0  0  0  0
   25.1000   11.1400   23.4320 H   0  0  0  0  0  0  0  0  0  0  0  0
   26.3950   13.0070   23.0310 H   0  0  0  0  0  0  0  0  0  0  0  0
   25.5900   13.7270   24.4510 H   0  0  0  0  0  0  0  0  0  0  0  0
   25.6210   14.5980   22.8930 H   0  0  0  0  0  0  0  0  0  0  0  0
   23.1210    9.3490   24.3110 H   0  0  0  0  0  0  0  0  0  0  0  0
   20.7770    9.9350   22.8180 H   0  0  0  0  0  0  0  0  0  0  0  0
   21.5060   11.9490   24.4550 H   0  0  0  0  0  0  0  0  0  0  0  0
   22.9940   11.5730   25.3850 H   0  0  0  0  0  0  0  0  0  0  0  0
   20.6420    9.8780   25.4910 H   0  0  0  0  0  0  0  0  0  0  0  0
   21.8620    9.9280   26.5810 H   0  0  0  0  0  0  0  0  0  0  0  0
   18.1450   11.8790   28.5750 H   0  0  0  0  0  0  0  0  0  0  0  0
   18.9350   11.0540   29.9160 H   0  0  0  0  0  0  0  0  0  0  0  0
   20.6950   10.2160   28.5580 H   0  0  0  0  0  0  0  0  0  0  0  0
   19.2160    9.9030   27.6810 H   0  0  0  0  0  0  0  0  0  0  0  0
   18.1690   15.1460   24.8780 H   0  0  0  0  0  0  0  0  0  0  0  0
   18.3760   10.2770   25.5990 H   0  0  0  0  0  0  0  0  0  0  0  0
   15.2650   10.5980   26.1320 H   0  0  0  0  0  0  0  0  0  0  0  0
   16.4060    9.3330   25.6610 H   0  0  0  0  0  0  0  0  0  0  0  0
   14.8220    9.3970   24.9110 H   0  0  0  0  0  0  0  0  0  0  0  0
   17.1860   10.7260   22.2500 H   0  0  0  0  0  0  0  0  0  0  0  0
   16.0440    9.4250   22.6150 H   0  0  0  0  0  0  0  0  0  0  0  0
   17.6140    9.4710   23.4150 H   0  0  0  0  0  0  0  0  0  0  0  0
   19.3810   13.6110   30.3280 N   0  0  0  0  0  0  0  0  0  0  0  0
   19.9990   14.7500   30.6070 C   0  0  0  0  0  0  0  0  0  0  0  0
   19.5220   15.5040   31.6330 N   0  0  0  0  0  0  0  0  0  0  0  0
   19.9860   16.3710   31.8470 H   0  0  0  0  0  0  0  0  0  0  0  0
   18.7230   15.1770   32.1490 H   0  0  0  0  0  0  0  0  0  0  0  0
   21.0570   15.2110   29.9560 N   0  0  0  0  0  0  0  0  0  0  0  0
   21.5200   14.4680   28.9510 C   0  0  0  0  0  0  0  0  0  0  0  0
   22.3910   14.8770   28.4460 H   0  0  0  0  0  0  0  0  0  0  0  0
  1  2  1  0  0  0  0
  1 27  1  0  0  0  0
  1 76  2  0  0  0  0
  2  3  1  0  0  0  0
  2 35  1  0  0  0  0
  2 36  1  0  0  0  0
  3  4  1  0  0  0  0
  3 26  1  0  0  0  0
  3 29  1  0  0  0  0
  4  5  1  0  0  0  0
  4 32  2  0  0  0  0
  5 30  2  0  0  0  0
  5 37  1  0  0  0  0
  6 30  1  0  0  0  0
  6 31  2  0  0  0  0
  6 38  1  0  0  0  0
  7  8  1  0  0  0  0
  7 31  1  0  0  0  0
  7 33  1  0  0  0  0
  7 34  1  0  0  0  0
  8 39  1  0  0  0  0
  8 40  1  0  0  0  0
  8 41  1  0  0  0  0
  9 11  1  0  0  0  0
  9 20  1  0  0  0  0
  9 23  1  0  0  0  0
  9 42  1  0  0  0  0
 10 20  1  0  0  0  0
 10 21  1  0  0  0  0
 10 22  2  0  0  0  0
 11 19  1  0  0  0  0
 11 43  1  0  0  0  0
 11 44  1  0  0  0  0
 12 14  1  0  0  0  0
 12 19  2  0  0  0  0
 12 45  1  0  0  0  0
 13 14  1  0  0  0  0
 14 15  2  0  0  0  0
 15 16  1  0  0  0  0
 15 46  1  0  0  0  0
 16 17  1  0  0  0  0
 16 18  2  0  0  0  0
 18 19  1  0  0  0  0
 18 47  1  0  0  0  0
 20 48  1  0  0  0  0
 21 49  1  0  0  0  0
 21 50  1  0  0  0  0
 21 51  1  0  0  0  0
 23 24  1  0  0  0  0
 23 25  1  0  0  0  0
 23 52  1  0  0  0  0
 24 53  1  0  0  0  0
 25 26  1  0  0  0  0
 25 54  1  0  0  0  0
 25 55  1  0  0  0  0
 26 56  1  0  0  0  0
 26 57  1  0  0  0  0
 27 28  1  0  0  0  0
 27 70  2  0  0  0  0
 28 29  1  0  0  0  0
 28 58  1  0  0  0  0
 28 59  1  0  0  0  0
 29 60  1  0  0  0  0
 29 61  1  0  0  0  0
 30 62  1  0  0  0  0
 31 32  1  0  0  0  0
 32 63  1  0  0  0  0
 33 64  1  0  0  0  0
 33 65  1  0  0  0  0
 33 66  1  0  0  0  0
 34 67  1  0  0  0  0
 34 68  1  0  0  0  0
 34 69  1  0  0  0  0
 70 71  1  0  0  0  0
 71 72  1  0  0  0  0
 71 75  2  0  0  0  0
 72 73  1  0  0  0  0
 72 74  1  0  0  0  0
 75 76  1  0  0  0  0
 76 77  1  0  0  0  0
M  CHG  1  26   1
M  END
>  <PARENT_CMPD_ID>
CHEMBL609988

>  <STANDARD_TYPE>
IC50

>  <RELATION>
=

>  <STANDARD_VALUE>
14

>  <STANDARD_UNITS>
nM

>  <COMPOUND_KEY>
57, mixture of epimers

>  <PUBMED_ID>
19811916

>  <JOURNAL>
Bioorg. Med. Chem. Lett.

>  <YEAR>
2009

>  <VOLUME>
19

>  <FIRST_PAGE>
6386

>  <Company>
Elan

>  <idx>
446

>  <Model>
Valid

>  <target>
7.8538718

>  <des_pred_mlr>
7.44175

>  <RF_Canvas>
7.9823656

>  <DNN_Canvas>
8.1006832

>  <pred_CoMFA>
7.566

>  <pred_COMSIA>
8.1477003

>  <pred_abm5>
7.6924629

>  <pred_ff8>
7.3853455

>  <pred_gau6>
7.746778

>  <CID>
BACE_446

>  <active>
1

>  <des_class_bayes>
0

>  <maacs_class_bayes>
1

>  <radial_class_bayes>
1

>  <dend_class_bayes>
1

>  <molprint_class_bayes>
1

>  <RF_canvas>
1

>  <DNN_canvas>
1

$$$$
CHEMBL1210364
  MOE2015           3D

 85 88  0  0  1  0  0  0  0  0999 V2000
   28.1260   13.5140   22.8260 C   0  0  0  0  0  0  0  0  0  0  0  0
   28.2960   14.5110   23.7770 C   0  0  0  0  0  0  0  0  0  0  0  0
   27.2450   14.9490   24.5510 C   0  0  0  0  0  0  0  0  0  0  0  0
   25.9890   14.4010   24.4060 C   0  0  0  0  0  0  0  0  0  0  0  0
   25.8120   13.4090   23.4600 C   0  0  0  0  0  0  0  0  0  0  0  0
   26.8590   12.9700   22.6640 C   0  0  0  0  0  0  0  0  0  0  0  0
   24.4670   12.8370   23.2970 C   0  0  0  0  0  0  0  0  0  0  0  0
   23.4860   13.5710   23.2770 O   0  0  0  0  0  0  0  0  0  0  0  0
   24.4130   11.4770   23.1530 N   0  0  0  0  0  0  0  0  0  0  0  0
   23.1870   10.8210   22.7430 C   0  0  3  0  0  0  0  0  0  0  0  0
   23.5020    9.8670   21.5980 C   0  0  0  0  0  0  0  0  0  0  0  0
   24.3520   10.4960   20.5300 C   0  0  0  0  0  0  0  0  0  0  0  0
   23.9740   11.6980   19.9550 C   0  0  0  0  0  0  0  0  0  0  0  0
   24.7830   12.2580   18.9800 C   0  0  0  0  0  0  0  0  0  0  0  0
   25.9490   11.6360   18.5770 C   0  0  0  0  0  0  0  0  0  0  0  0
   26.3280   10.4440   19.1500 C   0  0  0  0  0  0  0  0  0  0  0  0
   25.5260    9.8760   20.1250 C   0  0  0  0  0  0  0  0  0  0  0  0
   22.5430   10.1470   23.9570 C   0  0  3  0  0  0  0  0  0  0  0  0
   21.4100    9.3600   23.5880 O   0  0  0  0  0  0  0  0  0  0  0  0
   21.9980   11.1450   24.9750 C   0  0  0  0  0  0  0  0  0  0  0  0
   21.3680   10.3940   26.0670 N   0  3  0  0  0  0  0  0  0  0  0  0
   20.3480   11.1510   26.8210 C   0  0  0  0  0  0  0  0  0  0  0  0
   27.4120   15.9900   25.5160 N   0  0  0  0  0  0  0  0  0  0  0  0
   26.5810   17.1510   25.3650 C   0  0  0  0  0  0  0  0  0  0  0  0
   25.5980   17.3940   26.2960 C   0  0  0  0  0  0  0  0  0  0  0  0
   24.7960   18.5090   26.1610 C   0  0  0  0  0  0  0  0  0  0  0  0
   24.9840   19.3540   25.0900 C   0  0  0  0  0  0  0  0  0  0  0  0
   25.9650   19.0960   24.1530 C   0  0  0  0  0  0  0  0  0  0  0  0
   26.7820   17.9820   24.2880 C   0  0  0  0  0  0  0  0  0  0  0  0
   28.7460   16.1330   26.5400 S   0  0  0  0  0  0  0  0  0  0  0  0
   29.8550   17.1970   25.6590 C   0  0  0  0  0  0  0  0  0  0  0  0
   29.3320   14.8140   26.6470 O   0  0  0  0  0  0  0  0  0  0  0  0
   28.3110   16.8350   27.7370 O   0  0  0  0  0  0  0  0  0  0  0  0
   29.2730   14.9520   23.9120 H   0  0  0  0  0  0  0  0  0  0  0  0
   25.1640   14.7380   25.0160 H   0  0  0  0  0  0  0  0  0  0  0  0
   26.6890   12.2060   21.9190 H   0  0  0  0  0  0  0  0  0  0  0  0
   25.2380   10.9230   23.3350 H   0  0  0  0  0  0  0  0  0  0  0  0
   22.4540   11.5340   22.3660 H   0  0  0  0  0  0  0  0  0  0  0  0
   22.5640    9.5410   21.1490 H   0  0  0  0  0  0  0  0  0  0  0  0
   24.0320    9.0030   22.0000 H   0  0  0  0  0  0  0  0  0  0  0  0
   23.0630   12.1910   20.2620 H   0  0  0  0  0  0  0  0  0  0  0  0
   24.4980   13.1960   18.5270 H   0  0  0  0  0  0  0  0  0  0  0  0
   26.5640   12.0860   17.8110 H   0  0  0  0  0  0  0  0  0  0  0  0
   27.2410    9.9570   18.8420 H   0  0  0  0  0  0  0  0  0  0  0  0
   25.8170    8.9390   20.5760 H   0  0  0  0  0  0  0  0  0  0  0  0
   23.3480    9.5480   24.3810 H   0  0  0  0  0  0  0  0  0  0  0  0
   20.7490    9.9550   23.2250 H   0  0  0  0  0  0  0  0  0  0  0  0
   21.2600   11.7910   24.4990 H   0  0  0  0  0  0  0  0  0  0  0  0
   22.8130   11.7520   25.3680 H   0  0  0  0  0  0  0  0  0  0  0  0
   22.0910   10.1090   26.7120 H   0  0  0  0  0  0  0  0  0  0  0  0
   20.9270    9.5750   25.6730 H   0  0  0  0  0  0  0  0  0  0  0  0
   19.8630   10.4660   27.5170 H   0  0  0  0  0  0  0  0  0  0  0  0
   20.8350   11.9810   27.3340 H   0  0  0  0  0  0  0  0  0  0  0  0
   25.4550   16.7180   27.1260 H   0  0  0  0  0  0  0  0  0  0  0  0
   24.0270   18.7170   26.8900 H   0  0  0  0  0  0  0  0  0  0  0  0
   24.3580   20.2270   24.9820 H   0  0  0  0  0  0  0  0  0  0  0  0
   26.0970   19.7620   23.3130 H   0  0  0  0  0  0  0  0  0  0  0  0
   27.5570   17.7730   23.5650 H   0  0  0  0  0  0  0  0  0  0  0  0
   30.1980   16.6950   24.7540 H   0  0  0  0  0  0  0  0  0  0  0  0
   30.7110   17.4330   26.2910 H   0  0  0  0  0  0  0  0  0  0  0  0
   29.3380   18.1180   25.3900 H   0  0  0  0  0  0  0  0  0  0  0  0
   17.4480   12.7400   24.3140 C   0  0  0  0  0  0  0  0  0  0  0  0
   16.6880   13.1560   23.6580 H   0  0  0  0  0  0  0  0  0  0  0  0
   17.5030   11.3630   24.5310 C   0  0  0  0  0  0  0  0  0  0  0  0
   16.7870   10.7070   24.0440 H   0  0  0  0  0  0  0  0  0  0  0  0
   18.4780   10.8290   25.3740 C   0  0  0  0  0  0  0  0  0  0  0  0
   18.5210    9.7570   25.5430 H   0  0  0  0  0  0  0  0  0  0  0  0
   19.3980   11.6720   26.0000 C   0  0  0  0  0  0  0  0  0  0  0  0
   19.3420   13.0490   25.7820 C   0  0  0  0  0  0  0  0  0  0  0  0
   20.0580   13.7050   26.2690 H   0  0  0  0  0  0  0  0  0  0  0  0
   18.3670   13.5830   24.9390 C   0  0  0  0  0  0  0  0  0  0  0  0
   18.3080   15.0500   24.7070 C   0  0  0  0  0  0  0  0  0  0  0  0
   17.2840   15.3330   23.8580 F   0  0  0  0  0  0  0  0  0  0  0  0
   19.4800   15.4700   24.1610 F   0  0  0  0  0  0  0  0  0  0  0  0
   18.1040   15.6880   25.8910 F   0  0  0  0  0  0  0  0  0  0  0  0
   29.4350   12.9740   21.8850 S   0  0  0  0  0  0  0  0  0  0  0  0
   30.9010   13.5190   22.7160 C   0  0  0  0  0  0  0  0  0  0  0  0
   30.9800   13.0180   23.6800 H   0  0  0  0  0  0  0  0  0  0  0  0
   30.8520   14.5970   22.8690 H   0  0  0  0  0  0  0  0  0  0  0  0
   32.1090   13.1850   21.8760 C   0  0  0  0  0  0  0  0  0  0  0  0
   33.0110   13.5210   22.3870 H   0  0  0  0  0  0  0  0  0  0  0  0
   32.0300   13.6870   20.9110 H   0  0  0  0  0  0  0  0  0  0  0  0
   32.1580   12.1070   21.7220 H   0  0  0  0  0  0  0  0  0  0  0  0
   29.4270   11.5230   21.9180 O   0  0  0  0  0  0  0  0  0  0  0  0
   29.3710   13.6640   20.6100 O   0  0  0  0  0  0  0  0  0  0  0  0
  1  2  1  0  0  0  0
  1  6  2  0  0  0  0
  1 76  1  0  0  0  0
  2  3  2  0  0  0  0
  2 34  1  0  0  0  0
  3  4  1  0  0  0  0
  3 23  1  0  0  0  0
  4  5  2  0  0  0  0
  4 35  1  0  0  0  0
  5  6  1  0  0  0  0
  5  7  1  0  0  0  0
  6 36  1  0  0  0  0
  7  8  2  0  0  0  0
  7  9  1  0  0  0  0
  9 10  1  0  0  0  0
  9 37  1  0  0  0  0
 10 11  1  0  0  0  0
 10 18  1  0  0  0  0
 10 38  1  0  0  0  0
 11 12  1  0  0  0  0
 11 39  1  0  0  0  0
 11 40  1  0  0  0  0
 12 13  1  0  0  0  0
 12 17  2  0  0  0  0
 13 14  2  0  0  0  0
 13 41  1  0  0  0  0
 14 15  1  0  0  0  0
 14 42  1  0  0  0  0
 15 16  2  0  0  0  0
 15 43  1  0  0  0  0
 16 17  1  0  0  0  0
 16 44  1  0  0  0  0
 17 45  1  0  0  0  0
 18 19  1  0  0  0  0
 18 20  1  0  0  0  0
 18 46  1  0  0  0  0
 19 47  1  0  0  0  0
 20 21  1  0  0  0  0
 20 48  1  0  0  0  0
 20 49  1  0  0  0  0
 21 22  1  0  0  0  0
 21 50  1  0  0  0  0
 21 51  1  0  0  0  0
 22 52  1  0  0  0  0
 22 53  1  0  0  0  0
 22 68  1  0  0  0  0
 23 24  1  0  0  0  0
 23 30  1  0  0  0  0
 24 25  1  0  0  0  0
 24 29  2  0  0  0  0
 25 26  2  0  0  0  0
 25 54  1  0  0  0  0
 26 27  1  0  0  0  0
 26 55  1  0  0  0  0
 27 28  2  0  0  0  0
 27 56  1  0  0  0  0
 28 29  1  0  0  0  0
 28 57  1  0  0  0  0
 29 58  1  0  0  0  0
 30 31  1  0  0  0  0
 30 32  2  0  0  0  0
 30 33  2  0  0  0  0
 31 59  1  0  0  0  0
 31 60  1  0  0  0  0
 31 61  1  0  0  0  0
 62 63  1  0  0  0  0
 62 64  1  0  0  0  0
 62 71  2  0  0  0  0
 64 65  1  0  0  0  0
 64 66  2  0  0  0  0
 66 67  1  0  0  0  0
 66 68  1  0  0  0  0
 68 69  2  0  0  0  0
 69 70  1  0  0  0  0
 69 71  1  0  0  0  0
 71 72  1  0  0  0  0
 72 73  1  0  0  0  0
 72 74  1  0  0  0  0
 72 75  1  0  0  0  0
 76 77  1  0  0  0  0
 76 84  2  0  0  0  0
 76 85  2  0  0  0  0
 77 78  1  0  0  0  0
 77 79  1  0  0  0  0
 77 80  1  0  0  0  0
 80 81  1  0  0  0  0
 80 82  1  0  0  0  0
 80 83  1  0  0  0  0
M  CHG  1  21   1
M  END
>  <PARENT_CMPD_ID>
CHEMBL1210364

>  <STANDARD_TYPE>
IC50

>  <RELATION>
=

>  <STANDARD_VALUE>
14

>  <STANDARD_UNITS>
nM

>  <COMPOUND_KEY>
46

>  <PUBMED_ID>
20579874

>  <JOURNAL>
Bioorg. Med. Chem. Lett.

>  <YEAR>
2010

>  <VOLUME>
20

>  <FIRST_PAGE>
4639

>  <Company>
GSK

>  <idx>
447

>  <Model>
Valid

>  <target>
7.8538718

>  <des_pred_mlr>
7.8473802

>  <RF_Canvas>
7.8981099

>  <DNN_Canvas>
8.3417778

>  <pred_CoMFA>
7.3990002

>  <pred_COMSIA>
7.9737

>  <pred_abm5>
7.217979

>  <pred_ff8>
7.9341903

>  <pred_gau6>
7.6901102

>  <CID>
BACE_447

>  <active>
1

>  <des_class_bayes>
1

>  <maacs_class_bayes>
1

>  <radial_class_bayes>
1

>  <dend_class_bayes>
1

>  <molprint_class_bayes>
1

>  <RF_canvas>
1

>  <DNN_canvas>
1

$$$$
CHEMBL1270835
  MOE2015           3D

 50 52  0  0  1  0  0  0  0  0999 V2000
   22.5380   11.8500   25.1160 C   0  0  0  0  0  0  0  0  0  0  0  0
   22.3190   11.0890   23.9120 N   0  0  0  0  0  0  0  0  0  0  0  0
   22.4620    9.7600   23.7490 C   0  0  0  0  0  0  0  0  0  0  0  0
   22.2300    9.3040   22.5600 N   0  0  0  0  0  0  0  0  0  0  0  0
   21.8490   10.4830   21.7130 C   0  0  2  0  0  0  0  0  0  0  0  0
   21.9310   11.6340   22.7250 C   0  0  0  0  0  0  0  0  0  0  0  0
   21.7350   12.8190   22.4940 O   0  0  0  0  0  0  0  0  0  0  0  0
   20.4400   10.2400   21.1490 C   0  0  0  0  0  0  0  0  0  0  0  0
   19.4550   11.2280   21.0980 C   0  0  0  0  0  0  0  0  0  0  0  0
   18.2220   10.9790   20.5000 C   0  0  0  0  0  0  0  0  0  0  0  0
   17.9320    9.7350   19.9500 C   0  0  0  0  0  0  0  0  0  0  0  0
   16.6980    9.6190   19.3810 O   0  0  0  0  0  0  0  0  0  0  0  0
   16.1580    8.3110   19.3520 C   0  0  0  0  0  0  0  0  0  0  0  0
   16.6160    7.6750   18.2500 F   0  0  0  0  0  0  0  0  0  0  0  0
   14.8180    8.4280   19.1970 F   0  0  0  0  0  0  0  0  0  0  0  0
   18.9060    8.7470   19.9750 C   0  0  0  0  0  0  0  0  0  0  0  0
   20.1410    8.9980   20.5700 C   0  0  0  0  0  0  0  0  0  0  0  0
   22.8880   10.7400   20.6050 C   0  0  0  0  0  0  0  0  0  0  0  0
   22.5320   11.3380   19.3870 C   0  0  0  0  0  0  0  0  0  0  0  0
   23.4830   11.6140   18.4150 C   0  0  0  0  0  0  0  0  0  0  0  0
   24.8080   11.3220   18.6590 C   0  0  0  0  0  0  0  0  0  0  0  0
   25.7120   11.6110   17.7200 F   0  0  0  0  0  0  0  0  0  0  0  0
   25.1990   10.7530   19.8560 C   0  0  0  0  0  0  0  0  0  0  0  0
   24.2440   10.4590   20.8230 C   0  0  0  0  0  0  0  0  0  0  0  0
   26.5740   10.4980   20.1050 C   0  0  0  0  0  0  0  0  0  0  0  0
   27.7460   10.3340   20.2880 C   0  0  0  0  0  0  0  0  0  0  0  0
   29.1830   10.1890   20.4960 C   0  0  0  0  0  0  0  0  0  0  0  0
   29.5500   10.3350   21.9570 C   0  0  0  0  0  0  0  0  0  0  0  0
   29.0380    9.1790   22.7820 C   0  0  0  0  0  0  0  0  0  0  0  0
   29.4610    9.3610   24.0550 F   0  0  0  0  0  0  0  0  0  0  0  0
   22.8310    8.9490   24.7630 N   0  0  0  0  0  0  0  0  0  0  0  0
   22.3480   12.9140   24.9550 H   0  0  0  0  0  0  0  0  0  0  0  0
   23.5710   11.7040   25.4430 H   0  0  0  0  0  0  0  0  0  0  0  0
   21.8740   11.4710   25.8990 H   0  0  0  0  0  0  0  0  0  0  0  0
   19.6270   12.2250   21.4970 H   0  0  0  0  0  0  0  0  0  0  0  0
   17.4770   11.7710   20.4650 H   0  0  0  0  0  0  0  0  0  0  0  0
   16.3560    7.7220   20.2550 H   0  0  0  0  0  0  0  0  0  0  0  0
   18.7480    7.7760   19.5140 H   0  0  0  0  0  0  0  0  0  0  0  0
   20.8930    8.2100   20.5650 H   0  0  0  0  0  0  0  0  0  0  0  0
   21.5010   11.6100   19.1710 H   0  0  0  0  0  0  0  0  0  0  0  0
   23.1940   12.0720   17.4740 H   0  0  0  0  0  0  0  0  0  0  0  0
   24.5680   10.0150   21.7630 H   0  0  0  0  0  0  0  0  0  0  0  0
   29.5260    9.2220   20.1100 H   0  0  0  0  0  0  0  0  0  0  0  0
   29.7080   10.9600   19.9190 H   0  0  0  0  0  0  0  0  0  0  0  0
   29.1690   11.2770   22.3710 H   0  0  0  0  0  0  0  0  0  0  0  0
   30.6410   10.3810   22.0570 H   0  0  0  0  0  0  0  0  0  0  0  0
   29.4330    8.2210   22.4300 H   0  0  0  0  0  0  0  0  0  0  0  0
   27.9460    9.1280   22.7990 H   0  0  0  0  0  0  0  0  0  0  0  0
   22.9230    7.9580   24.5790 H   0  0  0  0  0  0  0  0  0  0  0  0
   23.0220    9.2800   25.6980 H   0  0  0  0  0  0  0  0  0  0  0  0
  1  2  1  0  0  0  0
  1 32  1  0  0  0  0
  1 33  1  0  0  0  0
  1 34  1  0  0  0  0
  2  3  1  0  0  0  0
  2  6  1  0  0  0  0
  3  4  2  0  0  0  0
  3 31  1  0  0  0  0
  4  5  1  0  0  0  0
  5  6  1  0  0  0  0
  5  8  1  0  0  0  0
  5 18  1  0  0  0  0
  6  7  2  0  0  0  0
  8  9  1  0  0  0  0
  8 17  2  0  0  0  0
  9 10  2  0  0  0  0
  9 35  1  0  0  0  0
 10 11  1  0  0  0  0
 10 36  1  0  0  0  0
 11 12  1  0  0  0  0
 11 16  2  0  0  0  0
 12 13  1  0  0  0  0
 13 14  1  0  0  0  0
 13 15  1  0  0  0  0
 13 37  1  0  0  0  0
 16 17  1  0  0  0  0
 16 38  1  0  0  0  0
 17 39  1  0  0  0  0
 18 19  2  0  0  0  0
 18 24  1  0  0  0  0
 19 20  1  0  0  0  0
 19 40  1  0  0  0  0
 20 21  2  0  0  0  0
 20 41  1  0  0  0  0
 21 22  1  0  0  0  0
 21 23  1  0  0  0  0
 23 24  2  0  0  0  0
 23 25  1  0  0  0  0
 24 42  1  0  0  0  0
 25 26  3  0  0  0  0
 26 27  1  0  0  0  0
 27 28  1  0  0  0  0
 27 43  1  0  0  0  0
 27 44  1  0  0  0  0
 28 29  1  0  0  0  0
 28 45  1  0  0  0  0
 28 46  1  0  0  0  0
 29 30  1  0  0  0  0
 29 47  1  0  0  0  0
 29 48  1  0  0  0  0
 31 49  1  0  0  0  0
 31 50  1  0  0  0  0
M  END
>  <PARENT_CMPD_ID>
CHEMBL1270835

>  <STANDARD_TYPE>
IC50

>  <RELATION>
=

>  <STANDARD_VALUE>
14

>  <STANDARD_UNITS>
nM

>  <COMPOUND_KEY>
102

>  <PUBMED_ID>
20880704

>  <JOURNAL>
Bioorg. Med. Chem. Lett.

>  <YEAR>
2010

>  <VOLUME>
20

>  <FIRST_PAGE>
6597

>  <Company>
Pfizer

>  <idx>
448

>  <Model>
Valid

>  <target>
7.8538718

>  <des_pred_mlr>
6.6935601

>  <RF_Canvas>
7.6585851

>  <DNN_Canvas>
7.5306163

>  <pred_CoMFA>
7.2006998

>  <pred_COMSIA>
6.8537998

>  <pred_abm5>
7.512557

>  <pred_ff8>
6.6383123

>  <pred_gau6>
7.4756346

>  <CID>
BACE_448

>  <active>
1

>  <des_class_bayes>
1

>  <maacs_class_bayes>
1

>  <radial_class_bayes>
1

>  <dend_class_bayes>
1

>  <molprint_class_bayes>
1

>  <RF_canvas>
1

>  <DNN_canvas>
1

$$$$
22698785_17
  MOE2015           3D

 81 83  0  0  1  0  0  0  0  0999 V2000
   28.1600   16.7780   28.1860 O   0  0  0  0  0  0  0  0  0  0  0  0
   28.4710   16.0940   26.9510 S   0  0  0  0  0  0  0  0  0  0  0  0
   29.2620   14.8860   27.0080 O   0  0  0  0  0  0  0  0  0  0  0  0
   29.2920   17.2720   25.8980 C   0  0  0  0  0  0  0  0  0  0  0  0
   30.2530   17.5140   26.3580 H   0  0  0  0  0  0  0  0  0  0  0  0
   28.6870   18.1770   25.8250 H   0  0  0  0  0  0  0  0  0  0  0  0
   29.4620   16.8400   24.9120 H   0  0  0  0  0  0  0  0  0  0  0  0
   27.0180   15.8330   26.1160 N   0  0  0  0  0  0  0  0  0  0  0  0
   26.0450   16.9420   26.0900 C   0  0  0  0  0  0  0  0  0  0  0  0
   26.4070   17.8230   26.6290 H   0  0  0  0  0  0  0  0  0  0  0  0
   25.1120   16.6350   26.5720 H   0  0  0  0  0  0  0  0  0  0  0  0
   25.8400   17.2590   25.0620 H   0  0  0  0  0  0  0  0  0  0  0  0
   26.8830   14.8100   25.1180 C   0  0  0  0  0  0  0  0  0  0  0  0
   27.9630   14.3290   24.3810 C   0  0  0  0  0  0  0  0  0  0  0  0
   28.9780   14.6620   24.5650 H   0  0  0  0  0  0  0  0  0  0  0  0
   27.7680   13.3960   23.3740 C   0  0  0  0  0  0  0  0  0  0  0  0
   25.6070   14.3050   24.8540 C   0  0  0  0  0  0  0  0  0  0  0  0
   24.7500   14.6350   25.4360 H   0  0  0  0  0  0  0  0  0  0  0  0
   25.4250   13.3470   23.8690 C   0  0  0  0  0  0  0  0  0  0  0  0
   26.5000   12.9140   23.1060 C   0  0  0  0  0  0  0  0  0  0  0  0
   26.3540   12.1760   22.3210 H   0  0  0  0  0  0  0  0  0  0  0  0
   24.0930   12.7470   23.6390 C   0  0  0  0  0  0  0  0  0  0  0  0
   23.0700   13.4130   23.6890 O   0  0  0  0  0  0  0  0  0  0  0  0
   24.1450   11.4010   23.3720 N   0  0  0  0  0  0  0  0  0  0  0  0
   25.0300   10.9150   23.4750 H   0  0  0  0  0  0  0  0  0  0  0  0
   23.0270   10.5950   22.9080 C   0  0  3  0  0  0  0  0  0  0  0  0
   22.2950   11.2590   22.4300 H   0  0  0  0  0  0  0  0  0  0  0  0
   22.3890    9.8410   24.0890 C   0  0  3  0  0  0  0  0  0  0  0  0
   23.1330    9.1860   24.5580 H   0  0  0  0  0  0  0  0  0  0  0  0
   21.8530   10.8140   25.1440 C   0  0  0  0  0  0  0  0  0  0  0  0
   21.1020   11.4710   24.6970 H   0  0  0  0  0  0  0  0  0  0  0  0
   22.6340   11.4050   25.6290 H   0  0  0  0  0  0  0  0  0  0  0  0
   21.1890   10.0180   26.2260 N   0  3  0  0  0  0  0  0  0  0  0  0
   21.8950    9.5620   26.8180 H   0  0  0  0  0  0  0  0  0  0  0  0
   20.6980    9.2470   25.7440 H   0  0  0  0  0  0  0  0  0  0  0  0
   20.2230   10.7760   27.0740 C   0  0  0  0  0  0  0  0  0  0  0  0
   20.7980   11.5650   27.5720 H   0  0  0  0  0  0  0  0  0  0  0  0
   19.8760   10.0790   27.8450 H   0  0  0  0  0  0  0  0  0  0  0  0
   19.0480   11.3240   26.3210 C   0  0  0  0  0  0  0  0  0  0  0  0
   18.1810   10.4690   25.6390 C   0  0  0  0  0  0  0  0  0  0  0  0
   18.3350    9.3920   25.6850 H   0  0  0  0  0  0  0  0  0  0  0  0
   17.1050   10.9570   24.8940 C   0  0  0  0  0  0  0  0  0  0  0  0
   16.2210    9.9680   24.1710 C   0  0  0  0  0  0  0  0  0  0  0  0
   16.8800    9.2120   23.7210 H   0  0  0  0  0  0  0  0  0  0  0  0
   15.2990    9.2630   25.1560 C   0  0  0  0  0  0  0  0  0  0  0  0
   14.6290    9.9730   25.6550 H   0  0  0  0  0  0  0  0  0  0  0  0
   15.8630    8.7400   25.9360 H   0  0  0  0  0  0  0  0  0  0  0  0
   14.6790    8.5180   24.6460 H   0  0  0  0  0  0  0  0  0  0  0  0
   15.4070   10.5570   23.0260 C   0  0  0  0  0  0  0  0  0  0  0  0
   14.6390   11.2530   23.3800 H   0  0  0  0  0  0  0  0  0  0  0  0
   14.8930    9.7620   22.4740 H   0  0  0  0  0  0  0  0  0  0  0  0
   16.0480   11.0890   22.3140 H   0  0  0  0  0  0  0  0  0  0  0  0
   16.8950   12.3330   24.8680 C   0  0  0  0  0  0  0  0  0  0  0  0
   16.0620   12.7660   24.3190 H   0  0  0  0  0  0  0  0  0  0  0  0
   17.7430   13.1950   25.5500 C   0  0  0  0  0  0  0  0  0  0  0  0
   17.5630   14.2670   25.5160 H   0  0  0  0  0  0  0  0  0  0  0  0
   18.8150   12.6950   26.2720 C   0  0  0  0  0  0  0  0  0  0  0  0
   19.4660   13.3950   26.7920 H   0  0  0  0  0  0  0  0  0  0  0  0
   21.3080    9.0040   23.6680 O   0  0  0  0  0  0  0  0  0  0  0  0
   20.7590    9.4910   23.0220 H   0  0  0  0  0  0  0  0  0  0  0  0
   23.5640    9.6130   21.8450 C   0  0  0  0  0  0  0  0  0  0  0  0
   22.7450    9.1500   21.2850 H   0  0  0  0  0  0  0  0  0  0  0  0
   24.1350    8.8210   22.3440 H   0  0  0  0  0  0  0  0  0  0  0  0
   24.4070   10.3300   20.9340 O   0  0  0  0  0  0  0  0  0  0  0  0
   25.3900    9.4980   20.3220 C   0  0  0  0  0  0  0  0  0  0  0  0
   24.9120    8.9180   19.5250 H   0  0  0  0  0  0  0  0  0  0  0  0
   25.8220    8.8030   21.0530 H   0  0  0  0  0  0  0  0  0  0  0  0
   26.4600   10.3720   19.7470 C   0  0  0  0  0  0  0  0  0  0  0  0
   26.1160   11.1600   19.0810 H   0  0  0  0  0  0  0  0  0  0  0  0
   27.7720   10.2310   19.9920 C   0  0  0  0  0  0  0  0  0  0  0  0
   28.1150    9.4350   20.6500 H   0  0  0  0  0  0  0  0  0  0  0  0
   28.8390   11.1100   19.4010 C   0  0  0  0  0  0  0  0  0  0  0  0
   28.3920   11.8190   18.6930 H   0  0  0  0  0  0  0  0  0  0  0  0
   29.5350   10.4880   18.8250 H   0  0  0  0  0  0  0  0  0  0  0  0
   29.6200   11.8900   20.4610 C   0  0  0  0  0  0  0  0  0  0  0  0
   30.2220   11.2120   21.0760 H   0  0  0  0  0  0  0  0  0  0  0  0
   30.2960   12.6080   19.9850 H   0  0  0  0  0  0  0  0  0  0  0  0
   28.7130   12.6350   21.3060 N   0  0  0  0  0  0  0  0  0  0  0  0
   27.8890   13.0300   20.8670 H   0  0  0  0  0  0  0  0  0  0  0  0
   28.9220   12.8320   22.6460 C   0  0  0  0  0  0  0  0  0  0  0  0
   29.9210   12.5040   23.2680 O   0  0  0  0  0  0  0  0  0  0  0  0
  1  2  2  0  0  0  0
  2  3  2  0  0  0  0
  2  4  1  0  0  0  0
  2  8  1  0  0  0  0
  4  5  1  0  0  0  0
  4  6  1  0  0  0  0
  4  7  1  0  0  0  0
  8  9  1  0  0  0  0
  8 13  1  0  0  0  0
  9 10  1  0  0  0  0
  9 11  1  0  0  0  0
  9 12  1  0  0  0  0
 13 14  2  0  0  0  0
 13 17  1  0  0  0  0
 14 15  1  0  0  0  0
 14 16  1  0  0  0  0
 16 20  2  0  0  0  0
 16 80  1  0  0  0  0
 17 18  1  0  0  0  0
 17 19  2  0  0  0  0
 19 20  1  0  0  0  0
 19 22  1  0  0  0  0
 20 21  1  0  0  0  0
 22 23  2  0  0  0  0
 22 24  1  0  0  0  0
 24 25  1  0  0  0  0
 24 26  1  0  0  0  0
 26 27  1  0  0  0  0
 26 28  1  0  0  0  0
 26 61  1  0  0  0  0
 28 29  1  0  0  0  0
 28 30  1  0  0  0  0
 28 59  1  0  0  0  0
 30 31  1  0  0  0  0
 30 32  1  0  0  0  0
 30 33  1  0  0  0  0
 33 34  1  0  0  0  0
 33 35  1  0  0  0  0
 33 36  1  0  0  0  0
 36 37  1  0  0  0  0
 36 38  1  0  0  0  0
 36 39  1  0  0  0  0
 39 40  1  0  0  0  0
 39 57  2  0  0  0  0
 40 41  1  0  0  0  0
 40 42  2  0  0  0  0
 42 43  1  0  0  0  0
 42 53  1  0  0  0  0
 43 44  1  0  0  0  0
 43 45  1  0  0  0  0
 43 49  1  0  0  0  0
 45 46  1  0  0  0  0
 45 47  1  0  0  0  0
 45 48  1  0  0  0  0
 49 50  1  0  0  0  0
 49 51  1  0  0  0  0
 49 52  1  0  0  0  0
 53 54  1  0  0  0  0
 53 55  2  0  0  0  0
 55 56  1  0  0  0  0
 55 57  1  0  0  0  0
 57 58  1  0  0  0  0
 59 60  1  0  0  0  0
 61 62  1  0  0  0  0
 61 63  1  0  0  0  0
 61 64  1  0  0  0  0
 64 65  1  0  0  0  0
 65 66  1  0  0  0  0
 65 67  1  0  0  0  0
 65 68  1  0  0  0  0
 68 69  1  0  0  0  0
 68 70  2  0  0  0  0
 70 71  1  0  0  0  0
 70 72  1  0  0  0  0
 72 73  1  0  0  0  0
 72 74  1  0  0  0  0
 72 75  1  0  0  0  0
 75 76  1  0  0  0  0
 75 77  1  0  0  0  0
 75 78  1  0  0  0  0
 78 79  1  0  0  0  0
 78 80  1  0  0  0  0
 80 81  2  0  0  0  0
M  CHG  1  33   1
M  END
>  <PARENT_CMPD_ID>
22698785_17

>  <STANDARD_TYPE>
IC50

>  <RELATION>
=

>  <STANDARD_VALUE>
14

>  <STANDARD_UNITS>
nM

>  <COMPOUND_KEY>
17

>  <PUBMED_ID>
22698785

>  <JOURNAL>
Bioorg. Med. Chem.

>  <YEAR>
2012

>  <VOLUME>
20

>  <FIRST_PAGE>
4377

>  <Company>
Medivir

>  <idx>
449

>  <Model>
Valid

>  <target>
7.8538718

>  <des_pred_mlr>
6.7299299

>  <RF_Canvas>
7.1272025

>  <DNN_Canvas>
6.3005519

>  <pred_CoMFA>
6.5086002

>  <pred_COMSIA>
6.9464002

>  <pred_abm5>
6.6530323

>  <pred_ff8>
8.6728706

>  <pred_gau6>
6.5815253

>  <CID>
BACE_449

>  <active>
1

>  <des_class_bayes>
1

>  <maacs_class_bayes>
1

>  <radial_class_bayes>
0

>  <dend_class_bayes>
1

>  <molprint_class_bayes>
1

>  <RF_canvas>
1

>  <DNN_canvas>
0

$$$$
23735744_21
  MOE2015           3D

 44 46  0  0  1  0  0  0  0  0999 V2000
   32.1950    8.5770   24.1750 Cl  0  0  0  0  0  0  0  0  0  0  0  0
   31.0350    9.1550   23.0590 C   0  0  0  0  0  0  0  0  0  0  0  0
   29.7450    8.6540   23.0600 C   0  0  0  0  0  0  0  0  0  0  0  0
   28.7780    9.0620   22.2090 N   0  0  0  0  0  0  0  0  0  0  0  0
   31.3660   10.1310   22.1350 C   0  0  0  0  0  0  0  0  0  0  0  0
   30.4040   10.5730   21.2380 C   0  0  0  0  0  0  0  0  0  0  0  0
   29.1350   10.0180   21.3130 C   0  0  0  0  0  0  0  0  0  0  0  0
   28.0490   10.5020   20.4180 C   0  0  0  0  0  0  0  0  0  0  0  0
   28.3140   11.1620   19.4240 O   0  0  0  0  0  0  0  0  0  0  0  0
   26.7940   10.1620   20.8730 N   0  0  0  0  0  0  0  0  0  0  0  0
   25.5540   10.5640   20.3490 C   0  0  0  0  0  0  0  0  0  0  0  0
   25.3940   11.2850   19.1720 C   0  0  0  0  0  0  0  0  0  0  0  0
   24.1280   11.6970   18.7760 C   0  0  0  0  0  0  0  0  0  0  0  0
   23.0250   11.4100   19.5630 C   0  0  0  0  0  0  0  0  0  0  0  0
   21.8320   11.8410   19.1500 F   0  0  0  0  0  0  0  0  0  0  0  0
   24.4200   10.2490   21.1000 C   0  0  0  0  0  0  0  0  0  0  0  0
   23.1360   10.6900   20.7460 C   0  0  0  0  0  0  0  0  0  0  0  0
   21.9250   10.3560   21.6130 C   0  0  3  0  0  0  0  0  0  0  0  0
   21.0120    9.4240   20.7820 C   0  0  0  0  0  0  0  0  0  0  0  0
   21.0660   11.5590   22.0370 C   0  0  0  0  0  0  0  0  0  0  0  0
   20.5480   11.9920   21.1720 H   0  0  0  0  0  0  0  0  0  0  0  0
   20.2620   11.2040   22.6990 H   0  0  0  0  0  0  0  0  0  0  0  0
   21.7920   12.6880   22.7450 C   0  0  0  0  0  0  0  0  0  0  0  0
   22.2280   13.3760   22.0120 H   0  0  0  0  0  0  0  0  0  0  0  0
   21.0430   13.2710   23.2960 H   0  0  0  0  0  0  0  0  0  0  0  0
   22.8680   12.2420   23.6950 C   0  0  0  0  0  0  0  0  0  0  0  0
   23.1200   13.0640   24.3740 H   0  0  0  0  0  0  0  0  0  0  0  0
   23.8000   11.9890   23.1820 H   0  0  0  0  0  0  0  0  0  0  0  0
   22.4330   11.1520   24.4890 O   0  0  0  0  0  0  0  0  0  0  0  0
   22.5210    9.9120   23.9640 C   0  0  0  0  0  0  0  0  0  0  0  0
   22.2910    9.5390   22.7670 N   0  0  0  0  0  0  0  0  0  0  0  0
   22.9200    9.0260   24.8960 N   0  0  0  0  0  0  0  0  0  0  0  0
   29.4400    7.8870   23.7650 H   0  0  0  0  0  0  0  0  0  0  0  0
   32.3690   10.5510   22.1030 H   0  0  0  0  0  0  0  0  0  0  0  0
   30.6370   11.3420   20.5070 H   0  0  0  0  0  0  0  0  0  0  0  0
   26.7950    9.5710   21.7030 H   0  0  0  0  0  0  0  0  0  0  0  0
   26.2390   11.5440   18.5430 H   0  0  0  0  0  0  0  0  0  0  0  0
   23.9980   12.2590   17.8550 H   0  0  0  0  0  0  0  0  0  0  0  0
   24.5510    9.6640   22.0080 H   0  0  0  0  0  0  0  0  0  0  0  0
   20.6030    9.9150   19.8930 H   0  0  0  0  0  0  0  0  0  0  0  0
   20.1610    9.0730   21.3790 H   0  0  0  0  0  0  0  0  0  0  0  0
   21.5540    8.5320   20.4450 H   0  0  0  0  0  0  0  0  0  0  0  0
   23.0250    8.0550   24.6440 H   0  0  0  0  0  0  0  0  0  0  0  0
   23.1110    9.3310   25.8380 H   0  0  0  0  0  0  0  0  0  0  0  0
  1  2  1  0  0  0  0
  2  3  2  0  0  0  0
  2  5  1  0  0  0  0
  3  4  1  0  0  0  0
  3 33  1  0  0  0  0
  4  7  2  0  0  0  0
  5  6  2  0  0  0  0
  5 34  1  0  0  0  0
  6  7  1  0  0  0  0
  6 35  1  0  0  0  0
  7  8  1  0  0  0  0
  8  9  2  0  0  0  0
  8 10  1  0  0  0  0
 10 11  1  0  0  0  0
 10 36  1  0  0  0  0
 11 12  1  0  0  0  0
 11 16  2  0  0  0  0
 12 13  2  0  0  0  0
 12 37  1  0  0  0  0
 13 14  1  0  0  0  0
 13 38  1  0  0  0  0
 14 15  1  0  0  0  0
 14 17  2  0  0  0  0
 16 17  1  0  0  0  0
 16 39  1  0  0  0  0
 17 18  1  0  0  0  0
 18 19  1  0  0  0  0
 18 20  1  0  0  0  0
 18 31  1  0  0  0  0
 19 40  1  0  0  0  0
 19 41  1  0  0  0  0
 19 42  1  0  0  0  0
 20 21  1  0  0  0  0
 20 22  1  0  0  0  0
 20 23  1  0  0  0  0
 23 24  1  0  0  0  0
 23 25  1  0  0  0  0
 23 26  1  0  0  0  0
 26 27  1  0  0  0  0
 26 28  1  0  0  0  0
 26 29  1  0  0  0  0
 29 30  1  0  0  0  0
 30 31  2  0  0  0  0
 30 32  1  0  0  0  0
 32 43  1  0  0  0  0
 32 44  1  0  0  0  0
M  END
>  <PARENT_CMPD_ID>
23735744_21

>  <STANDARD_TYPE>
IC50

>  <RELATION>
=

>  <STANDARD_VALUE>
0.014

>  <STANDARD_UNITS>
uM

>  <COMPOUND_KEY>
21

>  <PUBMED_ID>
23735744

>  <JOURNAL>
Bioorg.Med.Chem.Lett.

>  <YEAR>
2013

>  <VOLUME>
23

>  <FIRST_PAGE>
4239

>  <Company>
Roche

>  <idx>
450

>  <Model>
Valid

>  <target>
7.8538718

>  <des_pred_mlr>
6.401

>  <RF_Canvas>
6.6156454

>  <DNN_Canvas>
6.5828605

>  <pred_CoMFA>
7.1234999

>  <pred_COMSIA>
6.7852998

>  <pred_abm5>
6.8386765

>  <pred_ff8>
6.707407

>  <pred_gau6>
7.1090846

>  <CID>
BACE_450

>  <active>
1

>  <des_class_bayes>
0

>  <maacs_class_bayes>
0

>  <radial_class_bayes>
0

>  <dend_class_bayes>
1

>  <molprint_class_bayes>
0

>  <RF_canvas>
0

>  <DNN_canvas>
0

$$$$
CHEMBL560612
  MOE2015           3D

 78 82  0  0  1  0  0  0  0  0999 V2000
   29.4710   12.4070   19.8980 C   0  0  0  0  0  0  0  0  0  0  0  0
   29.5280   12.0790   21.3700 C   0  0  0  0  0  0  0  0  0  0  0  0
   29.2120   13.2600   22.2160 C   0  0  0  0  0  0  0  0  0  0  0  0
   30.0910   14.2430   22.6120 C   0  0  0  0  0  0  0  0  0  0  0  0
   29.4330   15.0970   23.4390 N   0  0  0  0  0  0  0  0  0  0  0  0
   29.9890   16.2980   24.0220 C   0  0  0  0  0  0  0  0  0  0  0  0
   30.1610   16.2780   25.5250 C   0  0  0  0  0  0  0  0  0  0  0  0
   28.6840   15.9210   26.4640 S   0  0  0  0  0  0  0  0  0  0  0  0
   28.5700   16.8880   27.5350 O   0  0  0  0  0  0  0  0  0  0  0  0
   28.6880   14.5080   26.7780 O   0  0  0  0  0  0  0  0  0  0  0  0
   27.4310   16.2490   25.3500 N   0  0  0  0  0  0  0  0  0  0  0  0
   26.3330   17.0980   25.8290 C   0  0  0  0  0  0  0  0  0  0  0  0
   27.1330   15.1820   24.4410 C   0  0  0  0  0  0  0  0  0  0  0  0
   25.8860   14.5490   24.4040 C   0  0  0  0  0  0  0  0  0  0  0  0
   25.6650   13.4560   23.5760 C   0  0  0  0  0  0  0  0  0  0  0  0
   26.6930   12.9630   22.7690 C   0  0  0  0  0  0  0  0  0  0  0  0
   27.9600   13.5620   22.8140 C   0  0  0  0  0  0  0  0  0  0  0  0
   28.1410   14.6730   23.6210 C   0  0  0  0  0  0  0  0  0  0  0  0
   24.3160   12.8320   23.5350 C   0  0  0  0  0  0  0  0  0  0  0  0
   23.2930   13.5000   23.6200 O   0  0  0  0  0  0  0  0  0  0  0  0
   24.2930   11.4700   23.3300 N   0  0  0  0  0  0  0  0  0  0  0  0
   23.0680   10.7430   23.0110 C   0  0  3  0  0  0  0  0  0  0  0  0
   23.3440    9.8020   21.8090 C   0  0  0  0  0  0  0  0  0  0  0  0
   24.1980   10.4100   20.7230 C   0  0  0  0  0  0  0  0  0  0  0  0
   23.8170   11.5870   20.0800 C   0  0  0  0  0  0  0  0  0  0  0  0
   24.6390   12.1690   19.1230 C   0  0  0  0  0  0  0  0  0  0  0  0
   25.8440   11.5740   18.7860 C   0  0  0  0  0  0  0  0  0  0  0  0
   26.2280   10.3950   19.4050 C   0  0  0  0  0  0  0  0  0  0  0  0
   25.4090    9.8150   20.3670 C   0  0  0  0  0  0  0  0  0  0  0  0
   22.5000    9.9810   24.2370 C   0  0  3  0  0  0  0  0  0  0  0  0
   21.4050    9.1460   23.8470 O   0  0  0  0  0  0  0  0  0  0  0  0
   22.0000   10.9310   25.3580 C   0  0  0  0  0  0  0  0  0  0  0  0
   20.7060   10.4110   25.9630 N   0  3  0  0  0  0  0  0  0  0  0  0
   19.4650   10.8680   25.2370 C   0  0  0  0  0  0  0  0  0  0  0  0
   18.7950   12.0710   25.8790 C   0  0  0  0  0  0  0  0  0  0  0  0
   17.5950   12.4460   24.9990 C   0  0  0  0  0  0  0  0  0  0  0  0
   16.6980   11.3610   24.7380 O   0  0  0  0  0  0  0  0  0  0  0  0
   17.3000   10.1620   24.2920 C   0  0  0  0  0  0  0  0  0  0  0  0
   18.4520    9.7350   25.1850 C   0  0  0  0  0  0  0  0  0  0  0  0
   29.6570   11.5110   19.2980 H   0  0  0  0  0  0  0  0  0  0  0  0
   30.2270   13.1540   19.6280 H   0  0  0  0  0  0  0  0  0  0  0  0
   28.4940   12.8120   19.6150 H   0  0  0  0  0  0  0  0  0  0  0  0
   30.5290   11.7060   21.6200 H   0  0  0  0  0  0  0  0  0  0  0  0
   28.8330   11.2600   21.5870 H   0  0  0  0  0  0  0  0  0  0  0  0
   31.1380   14.3840   22.3710 H   0  0  0  0  0  0  0  0  0  0  0  0
   30.9640   16.4750   23.5520 H   0  0  0  0  0  0  0  0  0  0  0  0
   29.3450   17.1300   23.7110 H   0  0  0  0  0  0  0  0  0  0  0  0
   30.5200   17.2580   25.8600 H   0  0  0  0  0  0  0  0  0  0  0  0
   30.9030   15.5280   25.8190 H   0  0  0  0  0  0  0  0  0  0  0  0
   25.6380   17.3320   25.0160 H   0  0  0  0  0  0  0  0  0  0  0  0
   26.7220   18.0580   26.1830 H   0  0  0  0  0  0  0  0  0  0  0  0
   25.7810   16.6110   26.6390 H   0  0  0  0  0  0  0  0  0  0  0  0
   25.0740   14.8960   25.0380 H   0  0  0  0  0  0  0  0  0  0  0  0
   26.5340   12.1270   22.0970 H   0  0  0  0  0  0  0  0  0  0  0  0
   25.1600   10.9460   23.3810 H   0  0  0  0  0  0  0  0  0  0  0  0
   22.3100   11.4650   22.6800 H   0  0  0  0  0  0  0  0  0  0  0  0
   23.8390    8.8950   22.1810 H   0  0  0  0  0  0  0  0  0  0  0  0
   22.3970    9.4720   21.3630 H   0  0  0  0  0  0  0  0  0  0  0  0
   22.8740   12.0710   20.3250 H   0  0  0  0  0  0  0  0  0  0  0  0
   24.3340   13.0880   18.6290 H   0  0  0  0  0  0  0  0  0  0  0  0
   26.4840   12.0260   18.0330 H   0  0  0  0  0  0  0  0  0  0  0  0
   27.1710    9.9250   19.1420 H   0  0  0  0  0  0  0  0  0  0  0  0
   25.7360    8.8940   20.8430 H   0  0  0  0  0  0  0  0  0  0  0  0
   23.2700    9.3250   24.6610 H   0  0  0  0  0  0  0  0  0  0  0  0
   21.7540    8.3970   23.3270 H   0  0  0  0  0  0  0  0  0  0  0  0
   21.8010   11.9490   25.0160 H   0  0  0  0  0  0  0  0  0  0  0  0
   22.7320   10.9780   26.1710 H   0  0  0  0  0  0  0  0  0  0  0  0
   20.6600   10.6160   26.9680 H   0  0  0  0  0  0  0  0  0  0  0  0
   20.7690    9.3880   25.8510 H   0  0  0  0  0  0  0  0  0  0  0  0
   19.7760   11.1170   24.2140 H   0  0  0  0  0  0  0  0  0  0  0  0
   19.4840   12.9180   25.9560 H   0  0  0  0  0  0  0  0  0  0  0  0
   18.4510   11.8210   26.8900 H   0  0  0  0  0  0  0  0  0  0  0  0
   17.9410   12.8360   24.0340 H   0  0  0  0  0  0  0  0  0  0  0  0
   17.0180   13.2430   25.4800 H   0  0  0  0  0  0  0  0  0  0  0  0
   16.5300    9.3830   24.2770 H   0  0  0  0  0  0  0  0  0  0  0  0
   17.6390   10.3020   23.2590 H   0  0  0  0  0  0  0  0  0  0  0  0
   18.0830    9.5090   26.1940 H   0  0  0  0  0  0  0  0  0  0  0  0
   18.8950    8.8170   24.7840 H   0  0  0  0  0  0  0  0  0  0  0  0
  1  2  1  0  0  0  0
  1 40  1  0  0  0  0
  1 41  1  0  0  0  0
  1 42  1  0  0  0  0
  2  3  1  0  0  0  0
  2 43  1  0  0  0  0
  2 44  1  0  0  0  0
  3  4  2  0  0  0  0
  3 17  1  0  0  0  0
  4  5  1  0  0  0  0
  4 45  1  0  0  0  0
  5  6  1  0  0  0  0
  5 18  1  0  0  0  0
  6  7  1  0  0  0  0
  6 46  1  0  0  0  0
  6 47  1  0  0  0  0
  7  8  1  0  0  0  0
  7 48  1  0  0  0  0
  7 49  1  0  0  0  0
  8  9  2  0  0  0  0
  8 10  2  0  0  0  0
  8 11  1  0  0  0  0
 11 12  1  0  0  0  0
 11 13  1  0  0  0  0
 12 50  1  0  0  0  0
 12 51  1  0  0  0  0
 12 52  1  0  0  0  0
 13 14  1  0  0  0  0
 13 18  2  0  0  0  0
 14 15  2  0  0  0  0
 14 53  1  0  0  0  0
 15 16  1  0  0  0  0
 15 19  1  0  0  0  0
 16 17  2  0  0  0  0
 16 54  1  0  0  0  0
 17 18  1  0  0  0  0
 19 20  2  0  0  0  0
 19 21  1  0  0  0  0
 21 22  1  0  0  0  0
 21 55  1  0  0  0  0
 22 23  1  0  0  0  0
 22 30  1  0  0  0  0
 22 56  1  0  0  0  0
 23 24  1  0  0  0  0
 23 57  1  0  0  0  0
 23 58  1  0  0  0  0
 24 25  1  0  0  0  0
 24 29  2  0  0  0  0
 25 26  2  0  0  0  0
 25 59  1  0  0  0  0
 26 27  1  0  0  0  0
 26 60  1  0  0  0  0
 27 28  2  0  0  0  0
 27 61  1  0  0  0  0
 28 29  1  0  0  0  0
 28 62  1  0  0  0  0
 29 63  1  0  0  0  0
 30 31  1  0  0  0  0
 30 32  1  0  0  0  0
 30 64  1  0  0  0  0
 31 65  1  0  0  0  0
 32 33  1  0  0  0  0
 32 66  1  0  0  0  0
 32 67  1  0  0  0  0
 33 34  1  0  0  0  0
 33 68  1  0  0  0  0
 33 69  1  0  0  0  0
 34 35  1  0  0  0  0
 34 39  1  0  0  0  0
 34 70  1  0  0  0  0
 35 36  1  0  0  0  0
 35 71  1  0  0  0  0
 35 72  1  0  0  0  0
 36 37  1  0  0  0  0
 36 73  1  0  0  0  0
 36 74  1  0  0  0  0
 37 38  1  0  0  0  0
 38 39  1  0  0  0  0
 38 75  1  0  0  0  0
 38 76  1  0  0  0  0
 39 77  1  0  0  0  0
 39 78  1  0  0  0  0
M  CHG  1  33   1
M  END
>  <PARENT_CMPD_ID>
CHEMBL560612

>  <STANDARD_TYPE>
IC50

>  <RELATION>
=

>  <STANDARD_VALUE>
15

>  <STANDARD_UNITS>
nM

>  <COMPOUND_KEY>
13

>  <PUBMED_ID>
19477642

>  <JOURNAL>
Bioorg. Med. Chem. Lett.

>  <YEAR>
2009

>  <VOLUME>
19

>  <FIRST_PAGE>
3669

>  <Company>
GSK

>  <idx>
451

>  <Model>
Valid

>  <target>
7.8239088

>  <des_pred_mlr>
6.5903001

>  <RF_Canvas>
7.6623025

>  <DNN_Canvas>
7.5417237

>  <pred_CoMFA>
7.6515002

>  <pred_COMSIA>
7.1040001

>  <pred_abm5>
7.1237407

>  <pred_ff8>
7.2793689

>  <pred_gau6>
6.9342303

>  <CID>
BACE_451

>  <active>
1

>  <des_class_bayes>
0

>  <maacs_class_bayes>
1

>  <radial_class_bayes>
1

>  <dend_class_bayes>
1

>  <molprint_class_bayes>
1

>  <RF_canvas>
1

>  <DNN_canvas>
1

$$$$
CHEMBL562554
  MOE2015           3D

 67 70  0  0  1  0  0  0  0  0999 V2000
   29.6480   10.9980   21.5690 C   0  0  0  0  0  0  0  0  0  0  0  0
   29.4630   12.3900   21.0050 C   0  0  0  0  0  0  0  0  0  0  0  0
   29.1920   13.4080   22.0540 C   0  0  0  0  0  0  0  0  0  0  0  0
   30.0860   14.3350   22.5400 C   0  0  0  0  0  0  0  0  0  0  0  0
   29.4360   15.1300   23.4310 N   0  0  0  0  0  0  0  0  0  0  0  0
   29.9910   16.3080   24.0610 C   0  0  0  0  0  0  0  0  0  0  0  0
   30.1570   16.2380   25.5620 C   0  0  0  0  0  0  0  0  0  0  0  0
   30.5370   17.1980   25.9270 H   0  0  0  0  0  0  0  0  0  0  0  0
   30.8810   15.4630   25.8340 H   0  0  0  0  0  0  0  0  0  0  0  0
   28.6690   15.8880   26.4870 S   0  0  0  0  0  0  0  0  0  0  0  0
   28.6700   14.4760   26.8010 O   0  0  0  0  0  0  0  0  0  0  0  0
   28.5550   16.8600   27.5530 O   0  0  0  0  0  0  0  0  0  0  0  0
   27.4260   16.2130   25.3700 N   0  0  0  0  0  0  0  0  0  0  0  0
   26.3300   17.0740   25.8270 C   0  0  0  0  0  0  0  0  0  0  0  0
   27.1420   15.1570   24.4490 C   0  0  0  0  0  0  0  0  0  0  0  0
   25.9030   14.5120   24.4060 C   0  0  0  0  0  0  0  0  0  0  0  0
   25.6870   13.4480   23.5410 C   0  0  0  0  0  0  0  0  0  0  0  0
   26.7070   13.0070   22.6930 C   0  0  0  0  0  0  0  0  0  0  0  0
   27.9670   13.6210   22.7400 C   0  0  0  0  0  0  0  0  0  0  0  0
   28.1520   14.6830   23.6100 C   0  0  0  0  0  0  0  0  0  0  0  0
   24.3460   12.8120   23.4890 C   0  0  0  0  0  0  0  0  0  0  0  0
   23.3150   13.4640   23.6020 O   0  0  0  0  0  0  0  0  0  0  0  0
   24.3440   11.4550   23.2500 N   0  0  0  0  0  0  0  0  0  0  0  0
   23.1300   10.7150   22.9160 C   0  0  3  0  0  0  0  0  0  0  0  0
   23.4170    9.7690   21.7270 C   0  0  0  0  0  0  0  0  0  0  0  0
   24.2630   10.3960   20.6470 C   0  0  0  0  0  0  0  0  0  0  0  0
   25.4850    9.8250   20.2940 C   0  0  0  0  0  0  0  0  0  0  0  0
   26.3020   10.4310   19.3480 C   0  0  0  0  0  0  0  0  0  0  0  0
   25.9060   11.6140   18.7440 C   0  0  0  0  0  0  0  0  0  0  0  0
   24.6870   12.1840   19.0770 C   0  0  0  0  0  0  0  0  0  0  0  0
   23.8650   11.5740   20.0160 C   0  0  0  0  0  0  0  0  0  0  0  0
   22.5700    9.9710   24.1460 C   0  0  3  0  0  0  0  0  0  0  0  0
   21.4270    9.1710   23.8100 O   0  0  0  0  0  0  0  0  0  0  0  0
   22.0980   10.9530   25.2230 C   0  0  0  0  0  0  0  0  0  0  0  0
   21.2500   10.1820   26.1940 N   0  3  0  0  0  0  0  0  0  0  0  0
   20.3300   11.0170   26.9960 C   0  0  0  0  0  0  0  0  0  0  0  0
   29.8600   10.2870   20.7640 H   0  0  0  0  0  0  0  0  0  0  0  0
   28.7500   10.6540   22.0940 H   0  0  0  0  0  0  0  0  0  0  0  0
   30.4820   10.9660   22.2790 H   0  0  0  0  0  0  0  0  0  0  0  0
   28.6400   12.3860   20.2810 H   0  0  0  0  0  0  0  0  0  0  0  0
   30.3620   12.6690   20.4430 H   0  0  0  0  0  0  0  0  0  0  0  0
   31.1220   14.5110   22.2790 H   0  0  0  0  0  0  0  0  0  0  0  0
   30.9690   16.4990   23.6030 H   0  0  0  0  0  0  0  0  0  0  0  0
   29.3510   17.1520   23.7750 H   0  0  0  0  0  0  0  0  0  0  0  0
   25.6450   17.3040   25.0030 H   0  0  0  0  0  0  0  0  0  0  0  0
   26.7210   18.0350   26.1760 H   0  0  0  0  0  0  0  0  0  0  0  0
   25.7650   16.5990   26.6340 H   0  0  0  0  0  0  0  0  0  0  0  0
   25.0950   14.8300   25.0590 H   0  0  0  0  0  0  0  0  0  0  0  0
   26.5400   12.2080   21.9780 H   0  0  0  0  0  0  0  0  0  0  0  0
   25.2220   10.9470   23.2810 H   0  0  0  0  0  0  0  0  0  0  0  0
   22.3710   11.4320   22.5750 H   0  0  0  0  0  0  0  0  0  0  0  0
   23.9250    8.8710   22.1040 H   0  0  0  0  0  0  0  0  0  0  0  0
   22.4760    9.4240   21.2800 H   0  0  0  0  0  0  0  0  0  0  0  0
   25.8230    8.9030   20.7610 H   0  0  0  0  0  0  0  0  0  0  0  0
   27.2560    9.9820   19.0870 H   0  0  0  0  0  0  0  0  0  0  0  0
   26.5450   12.0890   18.0060 H   0  0  0  0  0  0  0  0  0  0  0  0
   24.3690   13.1050   18.5940 H   0  0  0  0  0  0  0  0  0  0  0  0
   22.9120   12.0390   20.2590 H   0  0  0  0  0  0  0  0  0  0  0  0
   23.3270    9.3000   24.5710 H   0  0  0  0  0  0  0  0  0  0  0  0
   21.7150    8.4460   23.2240 H   0  0  0  0  0  0  0  0  0  0  0  0
   21.4490   11.7210   24.7900 H   0  0  0  0  0  0  0  0  0  0  0  0
   22.9170   11.4140   25.7820 H   0  0  0  0  0  0  0  0  0  0  0  0
   20.7150    9.5300   25.5870 H   0  0  0  0  0  0  0  0  0  0  0  0
   21.8360    9.5890   26.7930 H   0  0  0  0  0  0  0  0  0  0  0  0
   19.6570   11.5460   26.3180 H   0  0  0  0  0  0  0  0  0  0  0  0
   20.9280   11.7130   27.5890 H   0  0  0  0  0  0  0  0  0  0  0  0
   19.7640   10.3470   27.6480 H   0  0  0  0  0  0  0  0  0  0  0  0
  1  2  1  0  0  0  0
  1 37  1  0  0  0  0
  1 38  1  0  0  0  0
  1 39  1  0  0  0  0
  2  3  1  0  0  0  0
  2 40  1  0  0  0  0
  2 41  1  0  0  0  0
  3  4  2  0  0  0  0
  3 19  1  0  0  0  0
  4  5  1  0  0  0  0
  4 42  1  0  0  0  0
  5  6  1  0  0  0  0
  5 20  1  0  0  0  0
  6  7  1  0  0  0  0
  6 43  1  0  0  0  0
  6 44  1  0  0  0  0
  7  8  1  0  0  0  0
  7  9  1  0  0  0  0
  7 10  1  0  0  0  0
 10 11  2  0  0  0  0
 10 12  2  0  0  0  0
 10 13  1  0  0  0  0
 13 14  1  0  0  0  0
 13 15  1  0  0  0  0
 14 45  1  0  0  0  0
 14 46  1  0  0  0  0
 14 47  1  0  0  0  0
 15 16  1  0  0  0  0
 15 20  2  0  0  0  0
 16 17  2  0  0  0  0
 16 48  1  0  0  0  0
 17 18  1  0  0  0  0
 17 21  1  0  0  0  0
 18 19  2  0  0  0  0
 18 49  1  0  0  0  0
 19 20  1  0  0  0  0
 21 22  2  0  0  0  0
 21 23  1  0  0  0  0
 23 24  1  0  0  0  0
 23 50  1  0  0  0  0
 24 25  1  0  0  0  0
 24 32  1  0  0  0  0
 24 51  1  0  0  0  0
 25 26  1  0  0  0  0
 25 52  1  0  0  0  0
 25 53  1  0  0  0  0
 26 27  1  0  0  0  0
 26 31  2  0  0  0  0
 27 28  2  0  0  0  0
 27 54  1  0  0  0  0
 28 29  1  0  0  0  0
 28 55  1  0  0  0  0
 29 30  2  0  0  0  0
 29 56  1  0  0  0  0
 30 31  1  0  0  0  0
 30 57  1  0  0  0  0
 31 58  1  0  0  0  0
 32 33  1  0  0  0  0
 32 34  1  0  0  0  0
 32 59  1  0  0  0  0
 33 60  1  0  0  0  0
 34 35  1  0  0  0  0
 34 61  1  0  0  0  0
 34 62  1  0  0  0  0
 35 36  1  0  0  0  0
 35 63  1  0  0  0  0
 35 64  1  0  0  0  0
 36 65  1  0  0  0  0
 36 66  1  0  0  0  0
 36 67  1  0  0  0  0
M  CHG  1  35   1
M  END
>  <PARENT_CMPD_ID>
CHEMBL562554

>  <STANDARD_TYPE>
IC50

>  <RELATION>
=

>  <STANDARD_VALUE>
15

>  <STANDARD_UNITS>
nM

>  <COMPOUND_KEY>
28

>  <PUBMED_ID>
19477642

>  <JOURNAL>
Bioorg. Med. Chem. Lett.

>  <YEAR>
2009

>  <VOLUME>
19

>  <FIRST_PAGE>
3669

>  <Company>
GSK

>  <idx>
452

>  <Model>
Valid

>  <target>
7.8239088

>  <des_pred_mlr>
6.5105901

>  <RF_Canvas>
7.3870063

>  <DNN_Canvas>
7.1476483

>  <pred_CoMFA>
6.0177002

>  <pred_COMSIA>
5.7975001

>  <pred_abm5>
6.1972594

>  <pred_ff8>
7.6731949

>  <pred_gau6>
5.7511907

>  <CID>
BACE_452

>  <active>
1

>  <des_class_bayes>
0

>  <maacs_class_bayes>
1

>  <radial_class_bayes>
1

>  <dend_class_bayes>
1

>  <molprint_class_bayes>
1

>  <RF_canvas>
1

>  <DNN_canvas>
1

$$$$
CHEMBL1210357
  MOE2015           3D

 75 78  0  0  1  0  0  0  0  0999 V2000
   20.2640   11.1570   26.8570 C   0  0  0  0  0  0  0  0  0  0  0  0
   21.2670   10.3660   26.1000 N   0  3  0  0  0  0  0  0  0  0  0  0
   21.8970   11.1270   25.0050 C   0  0  0  0  0  0  0  0  0  0  0  0
   22.4530   10.1390   23.9780 C   0  0  3  0  0  0  0  0  0  0  0  0
   21.3320    9.3440   23.5740 O   0  0  0  0  0  0  0  0  0  0  0  0
   23.1060   10.8440   22.7960 C   0  0  3  0  0  0  0  0  0  0  0  0
   23.4280    9.8950   21.6440 C   0  0  0  0  0  0  0  0  0  0  0  0
   24.3110   10.5370   20.6000 C   0  0  0  0  0  0  0  0  0  0  0  0
   23.9700   11.7390   19.9960 C   0  0  0  0  0  0  0  0  0  0  0  0
   24.8050   12.3030   19.0450 C   0  0  0  0  0  0  0  0  0  0  0  0
   25.9840   11.6730   18.6870 C   0  0  0  0  0  0  0  0  0  0  0  0
   26.3250   10.4770   19.2830 C   0  0  0  0  0  0  0  0  0  0  0  0
   25.4930    9.9130   20.2330 C   0  0  0  0  0  0  0  0  0  0  0  0
   24.3240   11.5430   23.2230 N   0  0  0  0  0  0  0  0  0  0  0  0
   24.3340   12.9010   23.3860 C   0  0  0  0  0  0  0  0  0  0  0  0
   23.3260   13.6080   23.3880 O   0  0  0  0  0  0  0  0  0  0  0  0
   25.6870   13.4610   23.5640 C   0  0  0  0  0  0  0  0  0  0  0  0
   26.7520   12.9530   22.8410 C   0  0  0  0  0  0  0  0  0  0  0  0
   28.0260   13.4740   23.0230 C   0  0  0  0  0  0  0  0  0  0  0  0
   28.2310   14.5110   23.9240 N   0  0  0  0  0  0  0  0  0  0  0  0
   27.1480   15.0100   24.6360 C   0  0  0  0  0  0  0  0  0  0  0  0
   25.8780   14.4890   24.4640 C   0  0  0  0  0  0  0  0  0  0  0  0
   25.0450   14.8830   25.0280 H   0  0  0  0  0  0  0  0  0  0  0  0
   27.2970   16.0860   25.5750 N   0  0  0  0  0  0  0  0  0  0  0  0
   26.4820   17.2510   25.3990 C   0  0  0  0  0  0  0  0  0  0  0  0
   26.6630   18.0220   24.2710 C   0  0  0  0  0  0  0  0  0  0  0  0
   25.8640   19.1370   24.1070 C   0  0  0  0  0  0  0  0  0  0  0  0
   24.9250   19.4590   25.0620 C   0  0  0  0  0  0  0  0  0  0  0  0
   24.7560   18.6790   26.1830 C   0  0  0  0  0  0  0  0  0  0  0  0
   25.5390   17.5590   26.3600 C   0  0  0  0  0  0  0  0  0  0  0  0
   28.6320   16.2090   26.6040 S   0  0  0  0  0  0  0  0  0  0  0  0
   29.7320   17.2750   25.7120 C   0  0  0  0  0  0  0  0  0  0  0  0
   29.2570   14.9140   26.6820 O   0  0  0  0  0  0  0  0  0  0  0  0
   28.2360   16.9430   27.7840 O   0  0  0  0  0  0  0  0  0  0  0  0
   19.7950   10.5010   27.5910 H   0  0  0  0  0  0  0  0  0  0  0  0
   20.7560   11.9990   27.3440 H   0  0  0  0  0  0  0  0  0  0  0  0
   20.8080    9.5570   25.7070 H   0  0  0  0  0  0  0  0  0  0  0  0
   21.9890   10.0660   26.7400 H   0  0  0  0  0  0  0  0  0  0  0  0
   22.7070   11.7380   25.4020 H   0  0  0  0  0  0  0  0  0  0  0  0
   21.1550   11.7700   24.5310 H   0  0  0  0  0  0  0  0  0  0  0  0
   23.2470    9.5260   24.4060 H   0  0  0  0  0  0  0  0  0  0  0  0
   20.6720    9.9370   23.2080 H   0  0  0  0  0  0  0  0  0  0  0  0
   22.3790   11.5660   22.4250 H   0  0  0  0  0  0  0  0  0  0  0  0
   22.4950    9.5870   21.1720 H   0  0  0  0  0  0  0  0  0  0  0  0
   23.9390    9.0190   22.0440 H   0  0  0  0  0  0  0  0  0  0  0  0
   23.0510   12.2360   20.2680 H   0  0  0  0  0  0  0  0  0  0  0  0
   24.5340   13.2400   18.5800 H   0  0  0  0  0  0  0  0  0  0  0  0
   26.6330   12.1150   17.9460 H   0  0  0  0  0  0  0  0  0  0  0  0
   27.2430    9.9800   19.0070 H   0  0  0  0  0  0  0  0  0  0  0  0
   25.7670    8.9760   20.6940 H   0  0  0  0  0  0  0  0  0  0  0  0
   25.1660   11.0140   23.3990 H   0  0  0  0  0  0  0  0  0  0  0  0
   26.5920   12.1510   22.1350 H   0  0  0  0  0  0  0  0  0  0  0  0
   28.8580   13.0730   22.4640 H   0  0  0  0  0  0  0  0  0  0  0  0
   27.4090   17.7620   23.5350 H   0  0  0  0  0  0  0  0  0  0  0  0
   25.9760   19.7570   23.2290 H   0  0  0  0  0  0  0  0  0  0  0  0
   24.3120   20.3380   24.9290 H   0  0  0  0  0  0  0  0  0  0  0  0
   24.0130   18.9430   26.9210 H   0  0  0  0  0  0  0  0  0  0  0  0
   25.4180   16.9340   27.2330 H   0  0  0  0  0  0  0  0  0  0  0  0
   30.0680   16.7730   24.8040 H   0  0  0  0  0  0  0  0  0  0  0  0
   30.5940   17.5120   26.3360 H   0  0  0  0  0  0  0  0  0  0  0  0
   29.2110   18.1950   25.4470 H   0  0  0  0  0  0  0  0  0  0  0  0
   17.3570   12.6670   24.3100 C   0  0  0  0  0  0  0  0  0  0  0  0
   16.5950   13.0610   23.6420 H   0  0  0  0  0  0  0  0  0  0  0  0
   17.4060   11.2990   24.5790 C   0  0  0  0  0  0  0  0  0  0  0  0
   16.6820   10.6280   24.1210 H   0  0  0  0  0  0  0  0  0  0  0  0
   18.3830   10.7910   25.4350 C   0  0  0  0  0  0  0  0  0  0  0  0
   18.4210    9.7260   25.6450 H   0  0  0  0  0  0  0  0  0  0  0  0
   19.3110   11.6520   26.0220 C   0  0  0  0  0  0  0  0  0  0  0  0
   19.2620   13.0190   25.7530 C   0  0  0  0  0  0  0  0  0  0  0  0
   19.9850   13.6900   26.2100 H   0  0  0  0  0  0  0  0  0  0  0  0
   18.2850   13.5270   24.8960 C   0  0  0  0  0  0  0  0  0  0  0  0
   18.2320   14.9840   24.6090 C   0  0  0  0  0  0  0  0  0  0  0  0
   17.2050   15.2410   23.7560 F   0  0  0  0  0  0  0  0  0  0  0  0
   19.4030   15.3770   24.0400 F   0  0  0  0  0  0  0  0  0  0  0  0
   18.0400   15.6680   25.7690 F   0  0  0  0  0  0  0  0  0  0  0  0
  1  2  1  0  0  0  0
  1 35  1  0  0  0  0
  1 36  1  0  0  0  0
  1 68  1  0  0  0  0
  2  3  1  0  0  0  0
  2 37  1  0  0  0  0
  2 38  1  0  0  0  0
  3  4  1  0  0  0  0
  3 39  1  0  0  0  0
  3 40  1  0  0  0  0
  4  5  1  0  0  0  0
  4  6  1  0  0  0  0
  4 41  1  0  0  0  0
  5 42  1  0  0  0  0
  6  7  1  0  0  0  0
  6 14  1  0  0  0  0
  6 43  1  0  0  0  0
  7  8  1  0  0  0  0
  7 44  1  0  0  0  0
  7 45  1  0  0  0  0
  8  9  1  0  0  0  0
  8 13  2  0  0  0  0
  9 10  2  0  0  0  0
  9 46  1  0  0  0  0
 10 11  1  0  0  0  0
 10 47  1  0  0  0  0
 11 12  2  0  0  0  0
 11 48  1  0  0  0  0
 12 13  1  0  0  0  0
 12 49  1  0  0  0  0
 13 50  1  0  0  0  0
 14 15  1  0  0  0  0
 14 51  1  0  0  0  0
 15 16  2  0  0  0  0
 15 17  1  0  0  0  0
 17 18  1  0  0  0  0
 17 22  2  0  0  0  0
 18 19  2  0  0  0  0
 18 52  1  0  0  0  0
 19 20  1  0  0  0  0
 19 53  1  0  0  0  0
 20 21  2  0  0  0  0
 21 22  1  0  0  0  0
 21 24  1  0  0  0  0
 22 23  1  0  0  0  0
 24 25  1  0  0  0  0
 24 31  1  0  0  0  0
 25 26  1  0  0  0  0
 25 30  2  0  0  0  0
 26 27  2  0  0  0  0
 26 54  1  0  0  0  0
 27 28  1  0  0  0  0
 27 55  1  0  0  0  0
 28 29  2  0  0  0  0
 28 56  1  0  0  0  0
 29 30  1  0  0  0  0
 29 57  1  0  0  0  0
 30 58  1  0  0  0  0
 31 32  1  0  0  0  0
 31 33  2  0  0  0  0
 31 34  2  0  0  0  0
 32 59  1  0  0  0  0
 32 60  1  0  0  0  0
 32 61  1  0  0  0  0
 62 63  1  0  0  0  0
 62 64  1  0  0  0  0
 62 71  2  0  0  0  0
 64 65  1  0  0  0  0
 64 66  2  0  0  0  0
 66 67  1  0  0  0  0
 66 68  1  0  0  0  0
 68 69  2  0  0  0  0
 69 70  1  0  0  0  0
 69 71  1  0  0  0  0
 71 72  1  0  0  0  0
 72 73  1  0  0  0  0
 72 74  1  0  0  0  0
 72 75  1  0  0  0  0
M  CHG  1   2   1
M  END
>  <PARENT_CMPD_ID>
CHEMBL1210357

>  <STANDARD_TYPE>
IC50

>  <RELATION>
=

>  <STANDARD_VALUE>
15

>  <STANDARD_UNITS>
nM

>  <COMPOUND_KEY>
37

>  <PUBMED_ID>
20579874

>  <JOURNAL>
Bioorg. Med. Chem. Lett.

>  <YEAR>
2010

>  <VOLUME>
20

>  <FIRST_PAGE>
4639

>  <Company>
GSK

>  <idx>
453

>  <Model>
Valid

>  <target>
7.8239088

>  <des_pred_mlr>
7.3551502

>  <RF_Canvas>
7.7219691

>  <DNN_Canvas>
7.5194135

>  <pred_CoMFA>
6.8484998

>  <pred_COMSIA>
7.6768999

>  <pred_abm5>
7.2585821

>  <pred_ff8>
7.9090767

>  <pred_gau6>
7.2959976

>  <CID>
BACE_453

>  <active>
1

>  <des_class_bayes>
1

>  <maacs_class_bayes>
1

>  <radial_class_bayes>
1

>  <dend_class_bayes>
1

>  <molprint_class_bayes>
1

>  <RF_canvas>
1

>  <DNN_canvas>
1

$$$$
21707077_62
  MOE2015           3D

 65 67  0  0  1  0  0  0  0  0999 V2000
   20.5700   13.0130   18.6060 C   0  0  0  0  0  0  0  0  0  0  0  0
   21.3480   14.0620   18.0740 C   0  0  0  0  0  0  0  0  0  0  0  0
   20.8240   14.9090   17.0820 C   0  0  0  0  0  0  0  0  0  0  0  0
   21.4240   15.7270   16.6880 H   0  0  0  0  0  0  0  0  0  0  0  0
   21.0060   12.1270   19.6960 C   0  0  0  0  0  0  0  0  0  0  0  0
   21.2190   10.7610   19.4620 C   0  0  0  0  0  0  0  0  0  0  0  0
   21.0960   10.3490   18.4620 H   0  0  0  0  0  0  0  0  0  0  0  0
   21.1720   12.6090   21.0060 C   0  0  0  0  0  0  0  0  0  0  0  0
   20.9970   13.6650   21.2100 H   0  0  0  0  0  0  0  0  0  0  0  0
   22.0390   11.3280   24.3910 C   0  0  0  0  0  0  0  0  0  0  0  0
   22.7420   14.3560   18.4940 C   0  0  0  0  0  0  0  0  0  0  0  0
   23.7370   13.2290   18.5650 C   0  0  0  0  0  0  0  0  0  0  0  0
   23.9060   12.9460   19.6060 H   0  0  0  0  0  0  0  0  0  0  0  0
   24.6800   13.5660   18.1240 H   0  0  0  0  0  0  0  0  0  0  0  0
   23.4020   12.3640   17.9880 H   0  0  0  0  0  0  0  0  0  0  0  0
   21.0080   11.4300   26.6850 C   0  0  3  0  0  0  0  0  0  0  0  0
   21.0070   10.3410   26.6490 H   0  0  0  0  0  0  0  0  0  0  0  0
   19.6570   11.9440   26.1690 C   0  0  0  0  0  0  0  0  0  0  0  0
   17.0580   11.1470   23.9620 C   0  0  0  0  0  0  0  0  0  0  0  0
   16.0110   11.4300   23.8540 H   0  0  0  0  0  0  0  0  0  0  0  0
   17.7370   11.7550   23.3650 H   0  0  0  0  0  0  0  0  0  0  0  0
   16.7470    9.5670   22.0290 C   0  0  0  0  0  0  0  0  0  0  0  0
   15.6760    9.7680   21.9920 H   0  0  0  0  0  0  0  0  0  0  0  0
   16.9380    8.5500   21.6870 H   0  0  0  0  0  0  0  0  0  0  0  0
   17.2760   10.2740   21.3900 H   0  0  0  0  0  0  0  0  0  0  0  0
   17.2290    9.7010   23.4910 C   0  0  0  0  0  0  0  0  0  0  0  0
   16.4150    8.7880   24.3730 C   0  0  0  0  0  0  0  0  0  0  0  0
   16.5360    7.7570   24.0380 H   0  0  0  0  0  0  0  0  0  0  0  0
   15.3630    9.0680   24.3140 H   0  0  0  0  0  0  0  0  0  0  0  0
   16.7580    8.8770   25.4040 H   0  0  0  0  0  0  0  0  0  0  0  0
   18.6840    9.3150   23.5750 C   0  0  0  0  0  0  0  0  0  0  0  0
   18.8070    8.2850   23.2400 H   0  0  0  0  0  0  0  0  0  0  0  0
   19.0250    9.4040   24.6070 H   0  0  0  0  0  0  0  0  0  0  0  0
   19.2730    9.9770   22.9400 H   0  0  0  0  0  0  0  0  0  0  0  0
   17.3750   11.3150   25.4590 C   0  0  0  0  0  0  0  0  0  0  0  0
   16.7010   10.6640   26.0150 H   0  0  0  0  0  0  0  0  0  0  0  0
   17.1780   12.3540   25.7240 H   0  0  0  0  0  0  0  0  0  0  0  0
   18.7600   10.9970   25.8830 N   0  0  0  0  0  0  0  0  0  0  0  0
   19.0350   10.0280   25.9580 H   0  0  0  0  0  0  0  0  0  0  0  0
   19.4450   13.1560   26.0680 O   0  0  0  0  0  0  0  0  0  0  0  0
   21.1960   11.9200   28.1360 C   0  0  0  0  0  0  0  0  0  0  0  0
   21.2160   13.0100   28.1450 H   0  0  0  0  0  0  0  0  0  0  0  0
   22.1400   11.5360   28.5230 H   0  0  0  0  0  0  0  0  0  0  0  0
   20.3740   11.5640   28.7580 H   0  0  0  0  0  0  0  0  0  0  0  0
   22.1780   11.9070   25.8040 C   0  0  0  0  0  0  0  0  0  0  0  0
   22.1690   12.9960   25.7510 H   0  0  0  0  0  0  0  0  0  0  0  0
   23.1190   11.5720   26.2410 H   0  0  0  0  0  0  0  0  0  0  0  0
   22.2250    9.9790   24.0560 C   0  0  0  0  0  0  0  0  0  0  0  0
   22.0720    9.5580   22.7890 N   0  0  0  0  0  0  0  0  0  0  0  0
   22.5620    9.0810   24.9770 N   0  0  0  0  0  0  0  0  0  0  0  0
   22.6950    8.1150   24.7150 H   0  0  0  0  0  0  0  0  0  0  0  0
   22.6850    9.3650   25.9380 H   0  0  0  0  0  0  0  0  0  0  0  0
   21.6890   12.2170   23.3710 C   0  0  0  0  0  0  0  0  0  0  0  0
   21.5360   13.2630   23.5940 H   0  0  0  0  0  0  0  0  0  0  0  0
   21.5370   11.7510   22.0630 C   0  0  0  0  0  0  0  0  0  0  0  0
   21.7360   10.3970   21.7980 C   0  0  0  0  0  0  0  0  0  0  0  0
   21.5880    9.9070   20.5040 C   0  0  0  0  0  0  0  0  0  0  0  0
   21.7410    8.8570   20.3020 H   0  0  0  0  0  0  0  0  0  0  0  0
   19.2730   12.8330   18.0830 C   0  0  0  0  0  0  0  0  0  0  0  0
   18.6330   12.0400   18.4690 H   0  0  0  0  0  0  0  0  0  0  0  0
   18.7640   13.6670   17.0840 C   0  0  0  0  0  0  0  0  0  0  0  0
   17.7580   13.5070   16.7050 H   0  0  0  0  0  0  0  0  0  0  0  0
   19.5380   14.7090   16.5870 C   0  0  0  0  0  0  0  0  0  0  0  0
   19.1420   15.3650   15.8160 H   0  0  0  0  0  0  0  0  0  0  0  0
   23.0640   15.5190   18.7280 O   0  0  0  0  0  0  0  0  0  0  0  0
  1  2  2  0  0  0  0
  1  5  1  0  0  0  0
  1 59  1  0  0  0  0
  2  3  1  0  0  0  0
  2 11  1  0  0  0  0
  3  4  1  0  0  0  0
  3 63  2  0  0  0  0
  5  6  1  0  0  0  0
  5  8  2  0  0  0  0
  6  7  1  0  0  0  0
  6 57  2  0  0  0  0
  8  9  1  0  0  0  0
  8 55  1  0  0  0  0
 10 45  1  0  0  0  0
 10 48  2  0  0  0  0
 10 53  1  0  0  0  0
 11 12  1  0  0  0  0
 11 65  2  0  0  0  0
 12 13  1  0  0  0  0
 12 14  1  0  0  0  0
 12 15  1  0  0  0  0
 16 17  1  0  0  0  0
 16 18  1  0  0  0  0
 16 41  1  0  0  0  0
 16 45  1  0  0  0  0
 18 38  1  0  0  0  0
 18 40  2  0  0  0  0
 19 20  1  0  0  0  0
 19 21  1  0  0  0  0
 19 26  1  0  0  0  0
 19 35  1  0  0  0  0
 22 23  1  0  0  0  0
 22 24  1  0  0  0  0
 22 25  1  0  0  0  0
 22 26  1  0  0  0  0
 26 27  1  0  0  0  0
 26 31  1  0  0  0  0
 27 28  1  0  0  0  0
 27 29  1  0  0  0  0
 27 30  1  0  0  0  0
 31 32  1  0  0  0  0
 31 33  1  0  0  0  0
 31 34  1  0  0  0  0
 35 36  1  0  0  0  0
 35 37  1  0  0  0  0
 35 38  1  0  0  0  0
 38 39  1  0  0  0  0
 41 42  1  0  0  0  0
 41 43  1  0  0  0  0
 41 44  1  0  0  0  0
 45 46  1  0  0  0  0
 45 47  1  0  0  0  0
 48 49  1  0  0  0  0
 48 50  1  0  0  0  0
 49 56  2  0  0  0  0
 50 51  1  0  0  0  0
 50 52  1  0  0  0  0
 53 54  1  0  0  0  0
 53 55  2  0  0  0  0
 55 56  1  0  0  0  0
 56 57  1  0  0  0  0
 57 58  1  0  0  0  0
 59 60  1  0  0  0  0
 59 61  2  0  0  0  0
 61 62  1  0  0  0  0
 61 63  1  0  0  0  0
 63 64  1  0  0  0  0
M  END
>  <PARENT_CMPD_ID>
21707077_62

>  <STANDARD_TYPE>
IC50

>  <RELATION>
=

>  <STANDARD_VALUE>
0.015

>  <STANDARD_UNITS>
uM

>  <COMPOUND_KEY>
62

>  <PUBMED_ID>
21707077

>  <JOURNAL>
J.Med.Chem.

>  <YEAR>
2011

>  <VOLUME>
54

>  <FIRST_PAGE>
5836

>  <Company>
Amgen

>  <idx>
454

>  <Model>
Valid

>  <target>
7.8239088

>  <des_pred_mlr>
7.3137798

>  <RF_Canvas>
7.0953121

>  <DNN_Canvas>
7.4456062

>  <pred_CoMFA>
7.4777999

>  <pred_COMSIA>
6.993

>  <pred_abm5>
7.6609716

>  <pred_ff8>
6.3033209

>  <pred_gau6>
7.2594748

>  <CID>
BACE_454

>  <active>
1

>  <des_class_bayes>
0

>  <maacs_class_bayes>
0

>  <radial_class_bayes>
1

>  <dend_class_bayes>
1

>  <molprint_class_bayes>
0

>  <RF_canvas>
1

>  <DNN_canvas>
1

$$$$
CHEMBL1824353
  MOE2015           3D

 48 51  0  0  1  0  0  0  0  0999 V2000
   22.9580   11.7900   25.1020 C   0  0  0  0  0  0  0  0  0  0  0  0
   22.9060   12.8600   24.8980 H   0  0  0  0  0  0  0  0  0  0  0  0
   23.9590   11.5340   25.4490 H   0  0  0  0  0  0  0  0  0  0  0  0
   22.2300   11.5310   25.8710 H   0  0  0  0  0  0  0  0  0  0  0  0
   22.6660   11.0590   23.9000 N   0  0  0  0  0  0  0  0  0  0  0  0
   22.4010   12.8770   22.5250 O   0  0  0  0  0  0  0  0  0  0  0  0
   18.5230   11.2740   20.2000 S   0  0  0  0  0  0  0  0  0  0  0  0
   22.4100   11.6630   22.7270 C   0  0  0  0  0  0  0  0  0  0  0  0
   22.4080    9.2830   22.5610 N   0  0  0  0  0  0  0  0  0  0  0  0
   22.1990   10.5170   21.7400 C   0  0  3  0  0  0  0  0  0  0  0  0
   22.7310    8.9340   24.8050 N   0  0  0  0  0  0  0  0  0  0  0  0
   22.6320    7.9350   24.6990 H   0  0  0  0  0  0  0  0  0  0  0  0
   22.9070    9.3300   25.7170 H   0  0  0  0  0  0  0  0  0  0  0  0
   22.6300    9.7310   23.7410 C   0  0  0  0  0  0  0  0  0  0  0  0
   28.6440    9.5760   22.0560 N   0  0  0  0  0  0  0  0  0  0  0  0
   23.2120   10.7130   20.6190 C   0  0  0  0  0  0  0  0  0  0  0  0
   22.9090   10.9710   19.2790 C   0  0  0  0  0  0  0  0  0  0  0  0
   21.8810   11.0440   18.9550 H   0  0  0  0  0  0  0  0  0  0  0  0
   23.9540   11.1330   18.3640 C   0  0  0  0  0  0  0  0  0  0  0  0
   23.7190   11.3230   17.3270 H   0  0  0  0  0  0  0  0  0  0  0  0
   25.2890   11.0560   18.7510 C   0  0  0  0  0  0  0  0  0  0  0  0
   26.0730   11.1990   18.0230 H   0  0  0  0  0  0  0  0  0  0  0  0
   25.6130   10.7910   20.0930 C   0  0  0  0  0  0  0  0  0  0  0  0
   24.5450   10.6380   20.9770 C   0  0  0  0  0  0  0  0  0  0  0  0
   24.7760   10.4470   22.0150 H   0  0  0  0  0  0  0  0  0  0  0  0
   26.9950   10.7050   20.6250 C   0  0  0  0  0  0  0  0  0  0  0  0
   27.9930   11.6230   20.2520 C   0  0  0  0  0  0  0  0  0  0  0  0
   27.7620   12.4190   19.5590 H   0  0  0  0  0  0  0  0  0  0  0  0
   29.2790   11.5070   20.7750 N   0  0  0  0  0  0  0  0  0  0  0  0
   29.5600   10.4740   21.6710 C   0  0  0  0  0  0  0  0  0  0  0  0
   30.5600   10.3960   22.0710 H   0  0  0  0  0  0  0  0  0  0  0  0
   27.3980    9.7170   21.5280 C   0  0  0  0  0  0  0  0  0  0  0  0
   26.6510    8.9990   21.8350 H   0  0  0  0  0  0  0  0  0  0  0  0
   20.8240   10.5150   21.1350 C   0  0  0  0  0  0  0  0  0  0  0  0
   20.1420    9.3330   20.7260 C   0  0  0  0  0  0  0  0  0  0  0  0
   20.5520    8.3380   20.8130 H   0  0  0  0  0  0  0  0  0  0  0  0
   18.9000    9.6110   20.2080 C   0  0  0  0  0  0  0  0  0  0  0  0
   20.0450   11.6280   20.9050 C   0  0  0  0  0  0  0  0  0  0  0  0
   20.3640   12.6310   21.1470 H   0  0  0  0  0  0  0  0  0  0  0  0
   18.0530    8.6520   19.7460 C   0  0  0  0  0  0  0  0  0  0  0  0
   18.5370    7.2480   19.8830 C   0  0  0  0  0  0  0  0  0  0  0  0
   19.5230    7.2470   20.3470 H   0  0  0  0  0  0  0  0  0  0  0  0
   18.5980    6.7870   18.8970 H   0  0  0  0  0  0  0  0  0  0  0  0
   17.5760    6.4670   20.7440 C   0  0  0  0  0  0  0  0  0  0  0  0
   17.9290    5.4410   20.8440 H   0  0  0  0  0  0  0  0  0  0  0  0
   16.5900    6.4680   20.2810 H   0  0  0  0  0  0  0  0  0  0  0  0
   17.5150    6.9280   21.7300 H   0  0  0  0  0  0  0  0  0  0  0  0
   16.9660    8.9240   19.2530 O   0  0  0  0  0  0  0  0  0  0  0  0
  1  2  1  0  0  0  0
  1  3  1  0  0  0  0
  1  4  1  0  0  0  0
  1  5  1  0  0  0  0
  5  8  1  0  0  0  0
  5 14  1  0  0  0  0
  6  8  2  0  0  0  0
  7 37  1  0  0  0  0
  7 38  1  0  0  0  0
  8 10  1  0  0  0  0
  9 10  1  0  0  0  0
  9 14  2  0  0  0  0
 10 16  1  0  0  0  0
 10 34  1  0  0  0  0
 11 12  1  0  0  0  0
 11 13  1  0  0  0  0
 11 14  1  0  0  0  0
 15 30  2  0  0  0  0
 15 32  1  0  0  0  0
 16 17  1  0  0  0  0
 16 24  2  0  0  0  0
 17 18  1  0  0  0  0
 17 19  2  0  0  0  0
 19 20  1  0  0  0  0
 19 21  1  0  0  0  0
 21 22  1  0  0  0  0
 21 23  2  0  0  0  0
 23 24  1  0  0  0  0
 23 26  1  0  0  0  0
 24 25  1  0  0  0  0
 26 27  1  0  0  0  0
 26 32  2  0  0  0  0
 27 28  1  0  0  0  0
 27 29  2  0  0  0  0
 29 30  1  0  0  0  0
 30 31  1  0  0  0  0
 32 33  1  0  0  0  0
 34 35  1  0  0  0  0
 34 38  2  0  0  0  0
 35 36  1  0  0  0  0
 35 37  2  0  0  0  0
 37 40  1  0  0  0  0
 38 39  1  0  0  0  0
 40 41  1  0  0  0  0
 40 48  2  0  0  0  0
 41 42  1  0  0  0  0
 41 43  1  0  0  0  0
 41 44  1  0  0  0  0
 44 45  1  0  0  0  0
 44 46  1  0  0  0  0
 44 47  1  0  0  0  0
M  END
>  <PARENT_CMPD_ID>
CHEMBL1824353

>  <STANDARD_TYPE>
IC50

>  <RELATION>
=

>  <STANDARD_VALUE>
15

>  <STANDARD_UNITS>
nM

>  <COMPOUND_KEY>
56

>  <PUBMED_ID>
21835615

>  <JOURNAL>
Bioorg.Med.Chem.Lett.

>  <YEAR>
2011

>  <VOLUME>
21

>  <FIRST_PAGE>
5164

>  <Company>
Pfizer

>  <idx>
455

>  <Model>
Valid

>  <target>
7.8239088

>  <des_pred_mlr>
6.3573699

>  <RF_Canvas>
7.0258145

>  <DNN_Canvas>
7.1377172

>  <pred_CoMFA>
7.0433002

>  <pred_COMSIA>
6.6907001

>  <pred_abm5>
7.0332685

>  <pred_ff8>
5.7469292

>  <pred_gau6>
7.159687

>  <CID>
BACE_455

>  <active>
1

>  <des_class_bayes>
0

>  <maacs_class_bayes>
0

>  <radial_class_bayes>
0

>  <dend_class_bayes>
1

>  <molprint_class_bayes>
1

>  <RF_canvas>
1

>  <DNN_canvas>
1

$$$$
22468684_20
  MOE2015           3D

 83 86  0  0  1  0  0  0  0  0999 V2000
   20.7510   13.9050   29.6300 C   0  0  0  0  0  0  0  0  0  0  0  0
   20.1140   13.0280   30.7030 C   0  0  0  0  0  0  0  0  0  0  0  0
   19.1070   12.5560   29.6590 C   0  0  0  0  0  0  0  0  0  0  0  0
   20.0840   13.0180   28.5530 C   0  0  0  0  0  0  0  0  0  0  0  0
   21.0150   11.9720   27.9660 C   0  0  0  0  0  0  0  0  0  0  0  0
   19.4950   13.7810   27.4880 O   0  0  0  0  0  0  0  0  0  0  0  0
   18.8590   13.0730   26.5040 C   0  0  0  0  0  0  0  0  0  0  0  0
   17.9680   13.7890   25.8020 N   0  0  0  0  0  0  0  0  0  0  0  0
   17.3290   13.1520   24.8070 C   0  0  0  0  0  0  0  0  0  0  0  0
   17.5130   11.8140   24.4910 C   0  0  0  0  0  0  0  0  0  0  0  0
   16.7190   11.1690   23.3960 C   0  0  0  0  0  0  0  0  0  0  0  0
   15.3870   10.5170   23.8210 C   0  0  0  0  0  0  0  0  0  0  0  0
   14.4840   11.4940   24.5740 C   0  0  0  0  0  0  0  0  0  0  0  0
   15.6260    9.2840   24.6930 C   0  0  0  0  0  0  0  0  0  0  0  0
   14.6540   10.0730   22.5510 C   0  0  0  0  0  0  0  0  0  0  0  0
   18.4460   11.1070   25.2400 C   0  0  0  0  0  0  0  0  0  0  0  0
   19.1650   11.7440   26.2520 C   0  0  0  0  0  0  0  0  0  0  0  0
   20.2180   11.0350   27.0520 C   0  0  3  0  0  0  0  0  0  0  0  0
   21.1960   10.2380   26.2210 N   0  3  0  0  0  0  0  0  0  0  0  0
   21.9160   11.0010   25.1400 C   0  0  0  0  0  0  0  0  0  0  0  0
   22.3540   10.0220   24.0550 C   0  0  3  0  0  0  0  0  0  0  0  0
   21.2130    9.2480   23.6660 O   0  0  0  0  0  0  0  0  0  0  0  0
   22.9720   10.7360   22.8330 C   0  0  3  0  0  0  0  0  0  0  0  0
   24.0030   11.6820   23.2420 N   0  0  0  0  0  0  0  0  0  0  0  0
   23.7630   13.0380   23.3270 C   0  0  0  0  0  0  0  0  0  0  0  0
   22.6700   13.5410   23.0940 O   0  0  0  0  0  0  0  0  0  0  0  0
   24.9440   13.8450   23.8380 C   0  0  0  0  0  0  0  0  0  0  0  0
   26.1840   13.3010   23.4200 O   0  0  0  0  0  0  0  0  0  0  0  0
   26.5930   13.8140   22.1610 C   0  0  0  0  0  0  0  0  0  0  0  0
   23.4820    9.6950   21.8180 C   0  0  0  0  0  0  0  0  0  0  0  0
   24.3360   10.2790   20.7340 C   0  0  0  0  0  0  0  0  0  0  0  0
   25.7190   10.2520   20.8880 C   0  0  0  0  0  0  0  0  0  0  0  0
   23.7930   10.8840   19.6070 C   0  0  0  0  0  0  0  0  0  0  0  0
   24.6280   11.4490   18.6480 C   0  0  0  0  0  0  0  0  0  0  0  0
   26.0080   11.4250   18.8160 C   0  0  0  0  0  0  0  0  0  0  0  0
   26.5510   10.8260   19.9410 C   0  0  0  0  0  0  0  0  0  0  0  0
   21.8450   13.9260   29.6370 H   0  0  0  0  0  0  0  0  0  0  0  0
   20.3890   14.9410   29.6390 H   0  0  0  0  0  0  0  0  0  0  0  0
   19.6940   13.5590   31.5610 H   0  0  0  0  0  0  0  0  0  0  0  0
   20.7730   12.2330   31.0700 H   0  0  0  0  0  0  0  0  0  0  0  0
   18.1620   13.1140   29.6780 H   0  0  0  0  0  0  0  0  0  0  0  0
   18.8740   11.4870   29.6950 H   0  0  0  0  0  0  0  0  0  0  0  0
   21.5190   11.3880   28.7460 H   0  0  0  0  0  0  0  0  0  0  0  0
   21.8070   12.4900   27.4100 H   0  0  0  0  0  0  0  0  0  0  0  0
   16.6200   13.7690   24.2600 H   0  0  0  0  0  0  0  0  0  0  0  0
   17.3550   10.4250   22.8950 H   0  0  0  0  0  0  0  0  0  0  0  0
   16.5260   11.9290   22.6260 H   0  0  0  0  0  0  0  0  0  0  0  0
   14.8970   11.7710   25.5490 H   0  0  0  0  0  0  0  0  0  0  0  0
   13.4980   11.0530   24.7640 H   0  0  0  0  0  0  0  0  0  0  0  0
   14.3230   12.4130   23.9990 H   0  0  0  0  0  0  0  0  0  0  0  0
   16.0620    9.5460   25.6630 H   0  0  0  0  0  0  0  0  0  0  0  0
   16.3010    8.5730   24.2030 H   0  0  0  0  0  0  0  0  0  0  0  0
   14.6870    8.7560   24.8990 H   0  0  0  0  0  0  0  0  0  0  0  0
   14.4340   10.9260   21.8980 H   0  0  0  0  0  0  0  0  0  0  0  0
   13.7020    9.5850   22.7870 H   0  0  0  0  0  0  0  0  0  0  0  0
   15.2550    9.3600   21.9740 H   0  0  0  0  0  0  0  0  0  0  0  0
   18.6060   10.0540   25.0200 H   0  0  0  0  0  0  0  0  0  0  0  0
   19.7090   10.2900   27.6760 H   0  0  0  0  0  0  0  0  0  0  0  0
   20.6940    9.4810   25.7250 H   0  0  0  0  0  0  0  0  0  0  0  0
   21.8750    9.7560   26.8230 H   0  0  0  0  0  0  0  0  0  0  0  0
   22.7620   11.5050   25.6140 H   0  0  0  0  0  0  0  0  0  0  0  0
   21.2260   11.7380   24.7230 H   0  0  0  0  0  0  0  0  0  0  0  0
   23.0830    9.3250   24.4880 H   0  0  0  0  0  0  0  0  0  0  0  0
   20.7530    9.6940   22.9290 H   0  0  0  0  0  0  0  0  0  0  0  0
   22.1790   11.3040   22.3280 H   0  0  0  0  0  0  0  0  0  0  0  0
   24.9510   11.3710   23.4500 H   0  0  0  0  0  0  0  0  0  0  0  0
   24.8390   14.8930   23.5360 H   0  0  0  0  0  0  0  0  0  0  0  0
   24.9140   13.8000   24.9320 H   0  0  0  0  0  0  0  0  0  0  0  0
   27.5380   13.3390   21.8860 H   0  0  0  0  0  0  0  0  0  0  0  0
   26.7600   14.8940   22.2250 H   0  0  0  0  0  0  0  0  0  0  0  0
   25.8480   13.5960   21.3900 H   0  0  0  0  0  0  0  0  0  0  0  0
   22.6340    9.1650   21.3640 H   0  0  0  0  0  0  0  0  0  0  0  0
   24.0580    8.9190   22.3420 H   0  0  0  0  0  0  0  0  0  0  0  0
   26.1590    9.7840   21.7670 H   0  0  0  0  0  0  0  0  0  0  0  0
   22.7150   10.9270   19.4670 H   0  0  0  0  0  0  0  0  0  0  0  0
   24.1980   11.9210   17.7680 H   0  0  0  0  0  0  0  0  0  0  0  0
   26.6500   11.8780   18.0650 H   0  0  0  0  0  0  0  0  0  0  0  0
   27.9550   10.7970   20.1810 C   0  0  0  0  0  0  0  0  0  0  0  0
   29.1190   10.7650   20.4690 C   0  0  0  0  0  0  0  0  0  0  0  0
   30.5240   10.7480   20.8420 C   0  0  0  0  0  0  0  0  0  0  0  0
   30.7940   11.6540   21.3930 H   0  0  0  0  0  0  0  0  0  0  0  0
   31.1630   10.6900   19.9550 H   0  0  0  0  0  0  0  0  0  0  0  0
   30.7500    9.8870   21.4770 H   0  0  0  0  0  0  0  0  0  0  0  0
  1  2  1  0  0  0  0
  1  4  1  0  0  0  0
  1 37  1  0  0  0  0
  1 38  1  0  0  0  0
  2  3  1  0  0  0  0
  2 39  1  0  0  0  0
  2 40  1  0  0  0  0
  3  4  1  0  0  0  0
  3 41  1  0  0  0  0
  3 42  1  0  0  0  0
  4  5  1  0  0  0  0
  4  6  1  0  0  0  0
  5 18  1  0  0  0  0
  5 43  1  0  0  0  0
  5 44  1  0  0  0  0
  6  7  1  0  0  0  0
  7  8  1  0  0  0  0
  7 17  2  0  0  0  0
  8  9  2  0  0  0  0
  9 10  1  0  0  0  0
  9 45  1  0  0  0  0
 10 11  1  0  0  0  0
 10 16  2  0  0  0  0
 11 12  1  0  0  0  0
 11 46  1  0  0  0  0
 11 47  1  0  0  0  0
 12 13  1  0  0  0  0
 12 14  1  0  0  0  0
 12 15  1  0  0  0  0
 13 48  1  0  0  0  0
 13 49  1  0  0  0  0
 13 50  1  0  0  0  0
 14 51  1  0  0  0  0
 14 52  1  0  0  0  0
 14 53  1  0  0  0  0
 15 54  1  0  0  0  0
 15 55  1  0  0  0  0
 15 56  1  0  0  0  0
 16 17  1  0  0  0  0
 16 57  1  0  0  0  0
 17 18  1  0  0  0  0
 18 19  1  0  0  0  0
 18 58  1  0  0  0  0
 19 20  1  0  0  0  0
 19 59  1  0  0  0  0
 19 60  1  0  0  0  0
 20 21  1  0  0  0  0
 20 61  1  0  0  0  0
 20 62  1  0  0  0  0
 21 22  1  0  0  0  0
 21 23  1  0  0  0  0
 21 63  1  0  0  0  0
 22 64  1  0  0  0  0
 23 24  1  0  0  0  0
 23 30  1  0  0  0  0
 23 65  1  0  0  0  0
 24 25  1  0  0  0  0
 24 66  1  0  0  0  0
 25 26  2  0  0  0  0
 25 27  1  0  0  0  0
 27 28  1  0  0  0  0
 27 67  1  0  0  0  0
 27 68  1  0  0  0  0
 28 29  1  0  0  0  0
 29 69  1  0  0  0  0
 29 70  1  0  0  0  0
 29 71  1  0  0  0  0
 30 31  1  0  0  0  0
 30 72  1  0  0  0  0
 30 73  1  0  0  0  0
 31 32  1  0  0  0  0
 31 33  2  0  0  0  0
 32 36  2  0  0  0  0
 32 74  1  0  0  0  0
 33 34  1  0  0  0  0
 33 75  1  0  0  0  0
 34 35  2  0  0  0  0
 34 76  1  0  0  0  0
 35 36  1  0  0  0  0
 35 77  1  0  0  0  0
 36 78  1  0  0  0  0
 78 79  3  0  0  0  0
 79 80  1  0  0  0  0
 80 81  1  0  0  0  0
 80 82  1  0  0  0  0
 80 83  1  0  0  0  0
M  CHG  1  19   1
M  END
>  <PARENT_CMPD_ID>
22468684_20

>  <STANDARD_TYPE>
IC50

>  <RELATION>
=

>  <STANDARD_VALUE>
15

>  <STANDARD_UNITS>
nM

>  <COMPOUND_KEY>
20

>  <PUBMED_ID>
22468684

>  <JOURNAL>
J.Med.Chem.

>  <YEAR>
2012

>  <VOLUME>
55

>  <FIRST_PAGE>
9025

>  <Company>
Amgen

>  <idx>
456

>  <Model>
Valid

>  <target>
7.8239088

>  <des_pred_mlr>
7.5156898

>  <RF_Canvas>
7.9126234

>  <DNN_Canvas>
7.4712992

>  <pred_CoMFA>
8.6810999

>  <pred_COMSIA>
8.5538998

>  <pred_abm5>
8.8066711

>  <pred_ff8>
7.9529762

>  <pred_gau6>
8.7243872

>  <CID>
BACE_456

>  <active>
1

>  <des_class_bayes>
1

>  <maacs_class_bayes>
1

>  <radial_class_bayes>
1

>  <dend_class_bayes>
1

>  <molprint_class_bayes>
1

>  <RF_canvas>
1

>  <DNN_canvas>
1

$$$$
22698785_22
  MOE2015           3D

 84 86  0  0  1  0  0  0  0  0999 V2000
   28.1610   16.7780   28.1870 O   0  0  0  0  0  0  0  0  0  0  0  0
   28.4710   16.0950   26.9510 S   0  0  0  0  0  0  0  0  0  0  0  0
   29.2620   14.8860   27.0070 O   0  0  0  0  0  0  0  0  0  0  0  0
   29.2920   17.2730   25.8980 C   0  0  0  0  0  0  0  0  0  0  0  0
   30.2520   17.5150   26.3580 H   0  0  0  0  0  0  0  0  0  0  0  0
   28.6860   18.1780   25.8250 H   0  0  0  0  0  0  0  0  0  0  0  0
   29.4620   16.8410   24.9120 H   0  0  0  0  0  0  0  0  0  0  0  0
   27.0180   15.8340   26.1160 N   0  0  0  0  0  0  0  0  0  0  0  0
   26.0440   16.9420   26.0920 C   0  0  0  0  0  0  0  0  0  0  0  0
   26.4070   17.8230   26.6300 H   0  0  0  0  0  0  0  0  0  0  0  0
   25.1120   16.6350   26.5760 H   0  0  0  0  0  0  0  0  0  0  0  0
   25.8370   17.2580   25.0640 H   0  0  0  0  0  0  0  0  0  0  0  0
   26.8820   14.8100   25.1190 C   0  0  0  0  0  0  0  0  0  0  0  0
   27.9610   14.3290   24.3810 C   0  0  0  0  0  0  0  0  0  0  0  0
   28.9770   14.6630   24.5640 H   0  0  0  0  0  0  0  0  0  0  0  0
   27.7660   13.3950   23.3750 C   0  0  0  0  0  0  0  0  0  0  0  0
   25.6060   14.3060   24.8560 C   0  0  0  0  0  0  0  0  0  0  0  0
   24.7500   14.6360   25.4380 H   0  0  0  0  0  0  0  0  0  0  0  0
   25.4230   13.3460   23.8720 C   0  0  0  0  0  0  0  0  0  0  0  0
   26.4970   12.9130   23.1090 C   0  0  0  0  0  0  0  0  0  0  0  0
   26.3510   12.1740   22.3240 H   0  0  0  0  0  0  0  0  0  0  0  0
   24.0900   12.7470   23.6430 C   0  0  0  0  0  0  0  0  0  0  0  0
   23.0680   13.4140   23.6920 O   0  0  0  0  0  0  0  0  0  0  0  0
   24.1410   11.4010   23.3770 N   0  0  0  0  0  0  0  0  0  0  0  0
   25.0260   10.9150   23.4800 H   0  0  0  0  0  0  0  0  0  0  0  0
   23.0210   10.5960   22.9120 C   0  0  3  0  0  0  0  0  0  0  0  0
   22.2910   11.2610   22.4350 H   0  0  0  0  0  0  0  0  0  0  0  0
   22.3820    9.8420   24.0930 C   0  0  3  0  0  0  0  0  0  0  0  0
   23.1260    9.1880   24.5640 H   0  0  0  0  0  0  0  0  0  0  0  0
   21.8400   10.8130   25.1470 C   0  0  0  0  0  0  0  0  0  0  0  0
   21.0870   11.4660   24.6980 H   0  0  0  0  0  0  0  0  0  0  0  0
   22.6180   11.4080   25.6330 H   0  0  0  0  0  0  0  0  0  0  0  0
   21.1770   10.0140   26.2290 N   0  3  0  0  0  0  0  0  0  0  0  0
   21.8830    9.5500   26.8130 H   0  0  0  0  0  0  0  0  0  0  0  0
   20.6790    9.2500   25.7430 H   0  0  0  0  0  0  0  0  0  0  0  0
   20.2160   10.7670   27.0880 C   0  0  0  0  0  0  0  0  0  0  0  0
   20.7990   11.5390   27.6030 H   0  0  0  0  0  0  0  0  0  0  0  0
   19.8590   10.0600   27.8450 H   0  0  0  0  0  0  0  0  0  0  0  0
   19.0510   11.3470   26.3440 C   0  0  0  0  0  0  0  0  0  0  0  0
   18.1480   10.5160   25.6770 C   0  0  0  0  0  0  0  0  0  0  0  0
   18.2710    9.4370   25.7570 H   0  0  0  0  0  0  0  0  0  0  0  0
   17.0900   11.0260   24.9140 C   0  0  0  0  0  0  0  0  0  0  0  0
   16.1530   10.0770   24.1740 C   0  0  0  0  0  0  0  0  0  0  0  0
   15.1490   10.7830   23.2530 C   0  0  0  0  0  0  0  0  0  0  0  0
   14.5210   10.0600   22.7180 H   0  0  0  0  0  0  0  0  0  0  0  0
   15.6530   11.3950   22.4950 H   0  0  0  0  0  0  0  0  0  0  0  0
   14.4670   11.4330   23.8150 H   0  0  0  0  0  0  0  0  0  0  0  0
   15.3600    9.2500   25.1920 C   0  0  0  0  0  0  0  0  0  0  0  0
   14.6590    8.5700   24.6940 H   0  0  0  0  0  0  0  0  0  0  0  0
   14.7750    9.8960   25.8590 H   0  0  0  0  0  0  0  0  0  0  0  0
   16.0090    8.6340   25.8250 H   0  0  0  0  0  0  0  0  0  0  0  0
   16.9640    9.1280   23.2810 C   0  0  0  0  0  0  0  0  0  0  0  0
   16.3080    8.4750   22.6930 H   0  0  0  0  0  0  0  0  0  0  0  0
   17.6250    8.4680   23.8540 H   0  0  0  0  0  0  0  0  0  0  0  0
   17.5920    9.6860   22.5750 H   0  0  0  0  0  0  0  0  0  0  0  0
   16.9410   12.4120   24.8760 C   0  0  0  0  0  0  0  0  0  0  0  0
   16.1360   12.8830   24.3160 H   0  0  0  0  0  0  0  0  0  0  0  0
   17.8150   13.2510   25.5540 C   0  0  0  0  0  0  0  0  0  0  0  0
   17.6750   14.3280   25.5060 H   0  0  0  0  0  0  0  0  0  0  0  0
   18.8670   12.7230   26.2820 C   0  0  0  0  0  0  0  0  0  0  0  0
   19.5430   13.4050   26.7930 H   0  0  0  0  0  0  0  0  0  0  0  0
   21.3030    9.0030   23.6690 O   0  0  0  0  0  0  0  0  0  0  0  0
   20.7540    9.4890   23.0230 H   0  0  0  0  0  0  0  0  0  0  0  0
   23.5580    9.6150   21.8490 C   0  0  0  0  0  0  0  0  0  0  0  0
   22.7390    9.1520   21.2890 H   0  0  0  0  0  0  0  0  0  0  0  0
   24.1290    8.8210   22.3480 H   0  0  0  0  0  0  0  0  0  0  0  0
   24.4020   10.3300   20.9380 O   0  0  0  0  0  0  0  0  0  0  0  0
   25.3850    9.4970   20.3270 C   0  0  0  0  0  0  0  0  0  0  0  0
   24.9070    8.9170   19.5310 H   0  0  0  0  0  0  0  0  0  0  0  0
   25.8170    8.8040   21.0580 H   0  0  0  0  0  0  0  0  0  0  0  0
   26.4550   10.3710   19.7500 C   0  0  0  0  0  0  0  0  0  0  0  0
   26.1110   11.1590   19.0840 H   0  0  0  0  0  0  0  0  0  0  0  0
   27.7670   10.2290   19.9940 C   0  0  0  0  0  0  0  0  0  0  0  0
   28.1110    9.4340   20.6520 H   0  0  0  0  0  0  0  0  0  0  0  0
   28.8340   11.1080   19.4020 C   0  0  0  0  0  0  0  0  0  0  0  0
   28.3870   11.8170   18.6940 H   0  0  0  0  0  0  0  0  0  0  0  0
   29.5290   10.4860   18.8260 H   0  0  0  0  0  0  0  0  0  0  0  0
   29.6150   11.8890   20.4610 C   0  0  0  0  0  0  0  0  0  0  0  0
   30.2180   11.2110   21.0760 H   0  0  0  0  0  0  0  0  0  0  0  0
   30.2910   12.6060   19.9840 H   0  0  0  0  0  0  0  0  0  0  0  0
   28.7090   12.6340   21.3060 N   0  0  0  0  0  0  0  0  0  0  0  0
   27.8850   13.0290   20.8680 H   0  0  0  0  0  0  0  0  0  0  0  0
   28.9200   12.8310   22.6470 C   0  0  0  0  0  0  0  0  0  0  0  0
   29.9190   12.5030   23.2680 O   0  0  0  0  0  0  0  0  0  0  0  0
  1  2  2  0  0  0  0
  2  3  2  0  0  0  0
  2  4  1  0  0  0  0
  2  8  1  0  0  0  0
  4  5  1  0  0  0  0
  4  6  1  0  0  0  0
  4  7  1  0  0  0  0
  8  9  1  0  0  0  0
  8 13  1  0  0  0  0
  9 10  1  0  0  0  0
  9 11  1  0  0  0  0
  9 12  1  0  0  0  0
 13 14  2  0  0  0  0
 13 17  1  0  0  0  0
 14 15  1  0  0  0  0
 14 16  1  0  0  0  0
 16 20  2  0  0  0  0
 16 83  1  0  0  0  0
 17 18  1  0  0  0  0
 17 19  2  0  0  0  0
 19 20  1  0  0  0  0
 19 22  1  0  0  0  0
 20 21  1  0  0  0  0
 22 23  2  0  0  0  0
 22 24  1  0  0  0  0
 24 25  1  0  0  0  0
 24 26  1  0  0  0  0
 26 27  1  0  0  0  0
 26 28  1  0  0  0  0
 26 64  1  0  0  0  0
 28 29  1  0  0  0  0
 28 30  1  0  0  0  0
 28 62  1  0  0  0  0
 30 31  1  0  0  0  0
 30 32  1  0  0  0  0
 30 33  1  0  0  0  0
 33 34  1  0  0  0  0
 33 35  1  0  0  0  0
 33 36  1  0  0  0  0
 36 37  1  0  0  0  0
 36 38  1  0  0  0  0
 36 39  1  0  0  0  0
 39 40  1  0  0  0  0
 39 60  2  0  0  0  0
 40 41  1  0  0  0  0
 40 42  2  0  0  0  0
 42 43  1  0  0  0  0
 42 56  1  0  0  0  0
 43 44  1  0  0  0  0
 43 48  1  0  0  0  0
 43 52  1  0  0  0  0
 44 45  1  0  0  0  0
 44 46  1  0  0  0  0
 44 47  1  0  0  0  0
 48 49  1  0  0  0  0
 48 50  1  0  0  0  0
 48 51  1  0  0  0  0
 52 53  1  0  0  0  0
 52 54  1  0  0  0  0
 52 55  1  0  0  0  0
 56 57  1  0  0  0  0
 56 58  2  0  0  0  0
 58 59  1  0  0  0  0
 58 60  1  0  0  0  0
 60 61  1  0  0  0  0
 62 63  1  0  0  0  0
 64 65  1  0  0  0  0
 64 66  1  0  0  0  0
 64 67  1  0  0  0  0
 67 68  1  0  0  0  0
 68 69  1  0  0  0  0
 68 70  1  0  0  0  0
 68 71  1  0  0  0  0
 71 72  1  0  0  0  0
 71 73  2  0  0  0  0
 73 74  1  0  0  0  0
 73 75  1  0  0  0  0
 75 76  1  0  0  0  0
 75 77  1  0  0  0  0
 75 78  1  0  0  0  0
 78 79  1  0  0  0  0
 78 80  1  0  0  0  0
 78 81  1  0  0  0  0
 81 82  1  0  0  0  0
 81 83  1  0  0  0  0
 83 84  2  0  0  0  0
M  CHG  1  33   1
M  END
>  <PARENT_CMPD_ID>
22698785_22

>  <STANDARD_TYPE>
IC50

>  <RELATION>
=

>  <STANDARD_VALUE>
15

>  <STANDARD_UNITS>
nM

>  <COMPOUND_KEY>
22

>  <PUBMED_ID>
22698785

>  <JOURNAL>
Bioorg. Med. Chem.

>  <YEAR>
2012

>  <VOLUME>
20

>  <FIRST_PAGE>
4377

>  <Company>
Medivir

>  <idx>
457

>  <Model>
Valid

>  <target>
7.8239088

>  <des_pred_mlr>
6.8626399

>  <RF_Canvas>
7.353045

>  <DNN_Canvas>
6.467061

>  <pred_CoMFA>
6.7823

>  <pred_COMSIA>
7.2154999

>  <pred_abm5>
6.8699722

>  <pred_ff8>
8.6511688

>  <pred_gau6>
6.8085299

>  <CID>
BACE_457

>  <active>
1

>  <des_class_bayes>
1

>  <maacs_class_bayes>
1

>  <radial_class_bayes>
0

>  <dend_class_bayes>
1

>  <molprint_class_bayes>
1

>  <RF_canvas>
1

>  <DNN_canvas>
1

$$$$
23735744_8
  MOE2015           3D

 44 46  0  0  1  0  0  0  0  0999 V2000
   32.1790    8.5810   24.1560 Cl  0  0  0  0  0  0  0  0  0  0  0  0
   31.0170    9.1610   23.0440 C   0  0  0  0  0  0  0  0  0  0  0  0
   29.7270    8.6580   23.0440 C   0  0  0  0  0  0  0  0  0  0  0  0
   28.7570    9.0680   22.1970 N   0  0  0  0  0  0  0  0  0  0  0  0
   31.3450   10.1410   22.1230 C   0  0  0  0  0  0  0  0  0  0  0  0
   30.3790   10.5850   21.2300 C   0  0  0  0  0  0  0  0  0  0  0  0
   29.1100   10.0290   21.3040 C   0  0  0  0  0  0  0  0  0  0  0  0
   28.0250   10.5160   20.4080 C   0  0  0  0  0  0  0  0  0  0  0  0
   28.3000   11.1710   19.4140 O   0  0  0  0  0  0  0  0  0  0  0  0
   26.7640   10.1850   20.8560 N   0  0  0  0  0  0  0  0  0  0  0  0
   25.5280   10.5950   20.3190 C   0  0  0  0  0  0  0  0  0  0  0  0
   25.3820   11.3140   19.1410 C   0  0  0  0  0  0  0  0  0  0  0  0
   24.1200   11.7270   18.7190 C   0  0  0  0  0  0  0  0  0  0  0  0
   22.9910   11.4420   19.4750 C   0  0  0  0  0  0  0  0  0  0  0  0
   22.0260   11.7910   19.1170 H   0  0  0  0  0  0  0  0  0  0  0  0
   24.3820   10.2850   21.0510 C   0  0  0  0  0  0  0  0  0  0  0  0
   23.1020   10.7150   20.6610 C   0  0  0  0  0  0  0  0  0  0  0  0
   21.8700   10.3760   21.5020 C   0  0  3  0  0  0  0  0  0  0  0  0
   20.9180    9.5230   20.6470 C   0  0  0  0  0  0  0  0  0  0  0  0
   21.1190   11.6130   21.9720 C   0  0  0  0  0  0  0  0  0  0  0  0
   21.8800   12.3070   23.0550 C   0  0  0  0  0  0  0  0  0  0  0  0
   22.4550   11.4540   23.9820 N   0  0  0  0  0  0  0  0  0  0  0  0
   23.0320   12.0420   25.1640 C   0  0  0  0  0  0  0  0  0  0  0  0
   23.0400   13.1350   25.1380 H   0  0  0  0  0  0  0  0  0  0  0  0
   24.0600   11.6850   25.2820 H   0  0  0  0  0  0  0  0  0  0  0  0
   22.4540   11.7170   26.0360 H   0  0  0  0  0  0  0  0  0  0  0  0
   22.4990   10.0840   23.7820 C   0  0  0  0  0  0  0  0  0  0  0  0
   22.2010    9.5360   22.6540 N   0  0  0  0  0  0  0  0  0  0  0  0
   22.9310    9.2320   24.7480 N   0  0  0  0  0  0  0  0  0  0  0  0
   29.4250    7.8850   23.7460 H   0  0  0  0  0  0  0  0  0  0  0  0
   32.3460   10.5620   22.0900 H   0  0  0  0  0  0  0  0  0  0  0  0
   30.6120   11.3550   20.5020 H   0  0  0  0  0  0  0  0  0  0  0  0
   26.7520    9.5960   21.6880 H   0  0  0  0  0  0  0  0  0  0  0  0
   26.2360   11.5740   18.5240 H   0  0  0  0  0  0  0  0  0  0  0  0
   24.0230   12.2890   17.7930 H   0  0  0  0  0  0  0  0  0  0  0  0
   24.4960    9.7020   21.9610 H   0  0  0  0  0  0  0  0  0  0  0  0
   20.5220   10.0740   19.7860 H   0  0  0  0  0  0  0  0  0  0  0  0
   20.0590    9.1790   21.2360 H   0  0  0  0  0  0  0  0  0  0  0  0
   21.4210    8.6270   20.2640 H   0  0  0  0  0  0  0  0  0  0  0  0
   20.1450   11.3420   22.4010 H   0  0  0  0  0  0  0  0  0  0  0  0
   20.9280   12.3220   21.1590 H   0  0  0  0  0  0  0  0  0  0  0  0
   22.9640    8.2470   24.5180 H   0  0  0  0  0  0  0  0  0  0  0  0
   23.2160    9.5180   25.6720 H   0  0  0  0  0  0  0  0  0  0  0  0
   21.8980   13.5360   23.1230 O   0  0  0  0  0  0  0  0  0  0  0  0
  1  2  1  0  0  0  0
  2  3  2  0  0  0  0
  2  5  1  0  0  0  0
  3  4  1  0  0  0  0
  3 30  1  0  0  0  0
  4  7  2  0  0  0  0
  5  6  2  0  0  0  0
  5 31  1  0  0  0  0
  6  7  1  0  0  0  0
  6 32  1  0  0  0  0
  7  8  1  0  0  0  0
  8  9  2  0  0  0  0
  8 10  1  0  0  0  0
 10 11  1  0  0  0  0
 10 33  1  0  0  0  0
 11 12  1  0  0  0  0
 11 16  2  0  0  0  0
 12 13  2  0  0  0  0
 12 34  1  0  0  0  0
 13 14  1  0  0  0  0
 13 35  1  0  0  0  0
 14 15  1  0  0  0  0
 14 17  2  0  0  0  0
 16 17  1  0  0  0  0
 16 36  1  0  0  0  0
 17 18  1  0  0  0  0
 18 19  1  0  0  0  0
 18 20  1  0  0  0  0
 18 28  1  0  0  0  0
 19 37  1  0  0  0  0
 19 38  1  0  0  0  0
 19 39  1  0  0  0  0
 20 21  1  0  0  0  0
 20 40  1  0  0  0  0
 20 41  1  0  0  0  0
 21 22  1  0  0  0  0
 21 44  2  0  0  0  0
 22 23  1  0  0  0  0
 22 27  1  0  0  0  0
 23 24  1  0  0  0  0
 23 25  1  0  0  0  0
 23 26  1  0  0  0  0
 27 28  2  0  0  0  0
 27 29  1  0  0  0  0
 29 42  1  0  0  0  0
 29 43  1  0  0  0  0
M  END
>  <PARENT_CMPD_ID>
23735744_8

>  <STANDARD_TYPE>
IC50

>  <RELATION>
=

>  <STANDARD_VALUE>
0.015

>  <STANDARD_UNITS>
uM

>  <COMPOUND_KEY>
8

>  <PUBMED_ID>
23735744

>  <JOURNAL>
Bioorg.Med.Chem.Lett.

>  <YEAR>
2013

>  <VOLUME>
23

>  <FIRST_PAGE>
4239

>  <Company>
Roche

>  <idx>
458

>  <Model>
Valid

>  <target>
7.8239088

>  <des_pred_mlr>
5.9898801

>  <RF_Canvas>
6.3990455

>  <DNN_Canvas>
6.8845396

>  <pred_CoMFA>
7.7286

>  <pred_COMSIA>
6.5455999

>  <pred_abm5>
7.5163493

>  <pred_ff8>
6.795567

>  <pred_gau6>
7.5137529

>  <CID>
BACE_458

>  <active>
1

>  <des_class_bayes>
0

>  <maacs_class_bayes>
0

>  <radial_class_bayes>
0

>  <dend_class_bayes>
0

>  <molprint_class_bayes>
0

>  <RF_canvas>
0

>  <DNN_canvas>
0

$$$$
22924815_38
  MOE2015           3D

 55 59  0  0  1  0  0  0  0  0999 V2000
   16.2440   11.1960   22.2040 C   0  0  0  0  0  0  0  0  0  0  0  0
   17.0480   11.6470   21.0040 C   0  0  0  0  0  0  0  0  0  0  0  0
   18.1650   10.7550   20.7360 N   0  0  0  0  0  0  0  0  0  0  0  0
   19.3950   11.0480   21.2770 C   0  0  0  0  0  0  0  0  0  0  0  0
   20.4790   10.2870   21.0650 C   0  0  0  0  0  0  0  0  0  0  0  0
   20.3000    9.0850   20.2720 C   0  0  0  0  0  0  0  0  0  0  0  0
   19.1270    8.7540   19.7190 C   0  0  0  0  0  0  0  0  0  0  0  0
   17.9430    9.6320   19.9460 C   0  0  0  0  0  0  0  0  0  0  0  0
   16.8520    9.3430   19.4590 O   0  0  0  0  0  0  0  0  0  0  0  0
   18.9190    7.5370   18.8910 C   0  0  0  0  0  0  0  0  0  0  0  0
   21.8980   10.5870   21.6020 C   0  0  3  0  0  0  0  0  0  0  0  0
   21.9440   11.7510   22.5640 C   0  0  0  0  0  0  0  0  0  0  0  0
   21.7980   13.1100   22.3580 C   0  0  0  0  0  0  0  0  0  0  0  0
   21.8790   13.9590   23.4570 C   0  0  0  0  0  0  0  0  0  0  0  0
   22.1160   13.4510   24.7370 C   0  0  0  0  0  0  0  0  0  0  0  0
   22.2830   12.0920   24.9190 C   0  0  0  0  0  0  0  0  0  0  0  0
   22.1970   11.2710   23.8280 C   0  0  0  0  0  0  0  0  0  0  0  0
   22.3830    9.8380   23.6860 C   0  0  0  0  0  0  0  0  0  0  0  0
   22.2630    9.3990   22.4660 N   0  0  0  0  0  0  0  0  0  0  0  0
   22.6840    9.0390   24.7370 N   0  0  0  0  0  0  0  0  0  0  0  0
   22.5370   11.6060   26.1340 F   0  0  0  0  0  0  0  0  0  0  0  0
   22.9500   10.8060   20.4950 C   0  0  0  0  0  0  0  0  0  0  0  0
   22.5880   11.2000   19.2060 C   0  0  0  0  0  0  0  0  0  0  0  0
   23.5500   11.4270   18.2380 C   0  0  0  0  0  0  0  0  0  0  0  0
   24.8950   11.3090   18.5520 C   0  0  0  0  0  0  0  0  0  0  0  0
   25.3190   10.9770   19.8410 C   0  0  0  0  0  0  0  0  0  0  0  0
   24.3240   10.7060   20.7890 C   0  0  0  0  0  0  0  0  0  0  0  0
   26.7470   10.9700   20.1800 C   0  0  0  0  0  0  0  0  0  0  0  0
   27.3460   10.1050   21.0760 C   0  0  0  0  0  0  0  0  0  0  0  0
   28.6590   10.1160   21.3980 N   0  0  0  0  0  0  0  0  0  0  0  0
   29.4030   11.0360   20.7750 C   0  0  0  0  0  0  0  0  0  0  0  0
   28.9620   11.9280   19.8840 N   0  0  0  0  0  0  0  0  0  0  0  0
   27.6410   11.8750   19.6260 C   0  0  0  0  0  0  0  0  0  0  0  0
   15.4070   11.8780   22.3810 H   0  0  0  0  0  0  0  0  0  0  0  0
   16.8630   11.1740   23.1070 H   0  0  0  0  0  0  0  0  0  0  0  0
   15.8380   10.1900   22.0560 H   0  0  0  0  0  0  0  0  0  0  0  0
   17.4160   12.6690   21.1540 H   0  0  0  0  0  0  0  0  0  0  0  0
   16.3930   11.6760   20.1250 H   0  0  0  0  0  0  0  0  0  0  0  0
   19.4250   11.9480   21.8800 H   0  0  0  0  0  0  0  0  0  0  0  0
   21.1680    8.4430   20.1350 H   0  0  0  0  0  0  0  0  0  0  0  0
   18.1640    6.8860   19.3440 H   0  0  0  0  0  0  0  0  0  0  0  0
   19.8380    6.9510   18.7840 H   0  0  0  0  0  0  0  0  0  0  0  0
   18.5840    7.8090   17.8840 H   0  0  0  0  0  0  0  0  0  0  0  0
   21.6210   13.5140   21.3660 H   0  0  0  0  0  0  0  0  0  0  0  0
   21.7630   15.0320   23.3180 H   0  0  0  0  0  0  0  0  0  0  0  0
   22.1850   14.1220   25.5880 H   0  0  0  0  0  0  0  0  0  0  0  0
   22.8250    8.0490   24.5780 H   0  0  0  0  0  0  0  0  0  0  0  0
   22.7720    9.3950   25.6820 H   0  0  0  0  0  0  0  0  0  0  0  0
   21.5470   11.3370   18.9250 H   0  0  0  0  0  0  0  0  0  0  0  0
   23.2500   11.7090   17.2310 H   0  0  0  0  0  0  0  0  0  0  0  0
   25.6140   11.4930   17.7550 H   0  0  0  0  0  0  0  0  0  0  0  0
   24.6160   10.4480   21.8060 H   0  0  0  0  0  0  0  0  0  0  0  0
   26.7760    9.3320   21.5850 H   0  0  0  0  0  0  0  0  0  0  0  0
   30.4600   11.0590   21.0140 H   0  0  0  0  0  0  0  0  0  0  0  0
   27.3120   12.6390   18.9260 H   0  0  0  0  0  0  0  0  0  0  0  0
  1  2  1  0  0  0  0
  1 34  1  0  0  0  0
  1 35  1  0  0  0  0
  1 36  1  0  0  0  0
  2  3  1  0  0  0  0
  2 37  1  0  0  0  0
  2 38  1  0  0  0  0
  3  4  1  0  0  0  0
  3  8  1  0  0  0  0
  4  5  2  0  0  0  0
  4 39  1  0  0  0  0
  5  6  1  0  0  0  0
  5 11  1  0  0  0  0
  6  7  2  0  0  0  0
  6 40  1  0  0  0  0
  7  8  1  0  0  0  0
  7 10  1  0  0  0  0
  8  9  2  0  0  0  0
 10 41  1  0  0  0  0
 10 42  1  0  0  0  0
 10 43  1  0  0  0  0
 11 12  1  0  0  0  0
 11 19  1  0  0  0  0
 11 22  1  0  0  0  0
 12 13  1  0  0  0  0
 12 17  2  0  0  0  0
 13 14  2  0  0  0  0
 13 44  1  0  0  0  0
 14 15  1  0  0  0  0
 14 45  1  0  0  0  0
 15 16  2  0  0  0  0
 15 46  1  0  0  0  0
 16 17  1  0  0  0  0
 16 21  1  0  0  0  0
 17 18  1  0  0  0  0
 18 19  2  0  0  0  0
 18 20  1  0  0  0  0
 20 47  1  0  0  0  0
 20 48  1  0  0  0  0
 22 23  1  0  0  0  0
 22 27  2  0  0  0  0
 23 24  2  0  0  0  0
 23 49  1  0  0  0  0
 24 25  1  0  0  0  0
 24 50  1  0  0  0  0
 25 26  2  0  0  0  0
 25 51  1  0  0  0  0
 26 27  1  0  0  0  0
 26 28  1  0  0  0  0
 27 52  1  0  0  0  0
 28 29  1  0  0  0  0
 28 33  2  0  0  0  0
 29 30  2  0  0  0  0
 29 53  1  0  0  0  0
 30 31  1  0  0  0  0
 31 32  2  0  0  0  0
 31 54  1  0  0  0  0
 32 33  1  0  0  0  0
 33 55  1  0  0  0  0
M  END
>  <PARENT_CMPD_ID>
22924815_38

>  <STANDARD_TYPE>
IC50

>  <RELATION>
=

>  <STANDARD_VALUE>
15.5

>  <STANDARD_UNITS>
nM

>  <COMPOUND_KEY>
38

>  <PUBMED_ID>
22924815

>  <JOURNAL>
J.Med.Chem.

>  <YEAR>
2012

>  <VOLUME>
55

>  <FIRST_PAGE>
9346

>  <Company>
AstraZeneca

>  <idx>
459

>  <Model>
Valid

>  <target>
7.8096681

>  <des_pred_mlr>
7.2002001

>  <RF_Canvas>
7.4245791

>  <DNN_Canvas>
7.8574457

>  <pred_CoMFA>
8.8174

>  <pred_COMSIA>
7.6954999

>  <pred_abm5>
7.63767

>  <pred_ff8>
6.4757094

>  <pred_gau6>
7.8789897

>  <CID>
BACE_459

>  <active>
1

>  <des_class_bayes>
1

>  <maacs_class_bayes>
1

>  <radial_class_bayes>
1

>  <dend_class_bayes>
1

>  <molprint_class_bayes>
1

>  <RF_canvas>
1

>  <DNN_canvas>
1

$$$$
CHEMBL552743
  MOE2015           3D

 91 93  0  0  1  0  0  0  0  0999 V2000
   29.0380    9.9440   22.5500 C   0  0  0  0  0  0  0  0  0  0  0  0
   29.1200   11.2030   21.7140 C   0  0  0  0  0  0  0  0  0  0  0  0
   28.9150   12.4430   22.5750 C   0  0  0  0  0  0  0  0  0  0  0  0
   28.8580   13.7050   21.8420 N   0  0  0  0  0  0  0  0  0  0  0  0
   29.7100   13.8510   20.6730 C   0  0  0  0  0  0  0  0  0  0  0  0
   31.1770   13.9640   21.0640 C   0  0  0  0  0  0  0  0  0  0  0  0
   32.0640   14.1230   19.8410 C   0  0  0  0  0  0  0  0  0  0  0  0
   28.1460   14.8320   22.2390 C   0  0  0  0  0  0  0  0  0  0  0  0
   28.3650   15.9550   21.7780 O   0  0  0  0  0  0  0  0  0  0  0  0
   27.0470   14.7560   23.2200 C   0  0  0  0  0  0  0  0  0  0  0  0
   26.9420   15.7880   24.1520 C   0  0  0  0  0  0  0  0  0  0  0  0
   25.7580   15.9950   24.8580 C   0  0  0  0  0  0  0  0  0  0  0  0
   25.6290   17.1670   25.7880 C   0  0  0  0  0  0  0  0  0  0  0  0
   24.7010   18.2560   25.2410 C   0  0  3  0  0  0  0  0  0  0  0  0
   24.4550   19.3380   26.2840 C   0  0  0  0  0  0  0  0  0  0  0  0
   25.2710   18.8640   24.0830 O   0  0  0  0  0  0  0  0  0  0  0  0
   24.6830   15.1370   24.6450 C   0  0  0  0  0  0  0  0  0  0  0  0
   24.7970   14.0900   23.7390 C   0  0  0  0  0  0  0  0  0  0  0  0
   25.9730   13.9010   23.0130 C   0  0  0  0  0  0  0  0  0  0  0  0
   23.6180   13.2380   23.4960 C   0  0  0  0  0  0  0  0  0  0  0  0
   22.4810   13.6890   23.4600 O   0  0  0  0  0  0  0  0  0  0  0  0
   23.8940   11.9030   23.3280 N   0  0  0  0  0  0  0  0  0  0  0  0
   22.8530   10.9540   22.9500 C   0  0  3  0  0  0  0  0  0  0  0  0
   23.3780   10.0100   21.8570 C   0  0  0  0  0  0  0  0  0  0  0  0
   23.9140   10.7710   20.6690 C   0  0  0  0  0  0  0  0  0  0  0  0
   23.1260   11.7030   19.9910 C   0  0  0  0  0  0  0  0  0  0  0  0
   23.6640   12.4530   18.9580 C   0  0  0  0  0  0  0  0  0  0  0  0
   22.9030   13.3630   18.3500 F   0  0  0  0  0  0  0  0  0  0  0  0
   24.9730   12.2840   18.5590 C   0  0  0  0  0  0  0  0  0  0  0  0
   25.7420   11.3420   19.2090 C   0  0  0  0  0  0  0  0  0  0  0  0
   27.0080   11.1580   18.8320 F   0  0  0  0  0  0  0  0  0  0  0  0
   25.2320   10.5870   20.2530 C   0  0  0  0  0  0  0  0  0  0  0  0
   22.3480   10.2230   24.1990 C   0  0  3  0  0  0  0  0  0  0  0  0
   23.4470    9.7170   24.9560 O   0  0  0  0  0  0  0  0  0  0  0  0
   21.5200   11.1470   25.0910 C   0  0  0  0  0  0  0  0  0  0  0  0
   20.8810   10.3110   26.1620 N   0  3  0  0  0  0  0  0  0  0  0  0
   19.9470   11.0550   27.0610 C   0  0  0  0  0  0  0  0  0  0  0  0
   18.7490   11.5990   26.3320 C   0  0  0  0  0  0  0  0  0  0  0  0
   18.4720   12.9640   26.3290 C   0  0  0  0  0  0  0  0  0  0  0  0
   17.3970   13.4610   25.6010 C   0  0  0  0  0  0  0  0  0  0  0  0
   16.5900   12.6040   24.8600 C   0  0  0  0  0  0  0  0  0  0  0  0
   16.8460   11.2390   24.8560 C   0  0  0  0  0  0  0  0  0  0  0  0
   16.1560   10.2830   24.1680 O   0  0  0  0  0  0  0  0  0  0  0  0
   15.0930   10.7320   23.3460 C   0  0  0  0  0  0  0  0  0  0  0  0
   17.9110   10.7460   25.6090 C   0  0  0  0  0  0  0  0  0  0  0  0
   29.1900    9.0600   21.9220 H   0  0  0  0  0  0  0  0  0  0  0  0
   28.0580    9.8510   23.0290 H   0  0  0  0  0  0  0  0  0  0  0  0
   29.8040    9.9390   23.3320 H   0  0  0  0  0  0  0  0  0  0  0  0
   28.3550   11.1610   20.9320 H   0  0  0  0  0  0  0  0  0  0  0  0
   30.0950   11.2200   21.2160 H   0  0  0  0  0  0  0  0  0  0  0  0
   29.7530   12.5370   23.2780 H   0  0  0  0  0  0  0  0  0  0  0  0
   28.0270   12.3230   23.1990 H   0  0  0  0  0  0  0  0  0  0  0  0
   29.5400   13.0140   19.9880 H   0  0  0  0  0  0  0  0  0  0  0  0
   29.4230   14.7440   20.1050 H   0  0  0  0  0  0  0  0  0  0  0  0
   31.3200   14.8250   21.7280 H   0  0  0  0  0  0  0  0  0  0  0  0
   31.5040   13.0810   21.6250 H   0  0  0  0  0  0  0  0  0  0  0  0
   31.8000   15.0240   19.2780 H   0  0  0  0  0  0  0  0  0  0  0  0
   31.9710   13.2610   19.1730 H   0  0  0  0  0  0  0  0  0  0  0  0
   33.1130   14.2080   20.1420 H   0  0  0  0  0  0  0  0  0  0  0  0
   27.7640   16.4960   24.2560 H   0  0  0  0  0  0  0  0  0  0  0  0
   26.6220   17.5910   25.9840 H   0  0  0  0  0  0  0  0  0  0  0  0
   25.2540   16.8000   26.7520 H   0  0  0  0  0  0  0  0  0  0  0  0
   23.7360   17.8330   24.9400 H   0  0  0  0  0  0  0  0  0  0  0  0
   25.3940   19.8180   26.5830 H   0  0  0  0  0  0  0  0  0  0  0  0
   23.9720   18.9270   27.1760 H   0  0  0  0  0  0  0  0  0  0  0  0
   23.8160   20.1260   25.8720 H   0  0  0  0  0  0  0  0  0  0  0  0
   26.0770   19.3410   24.3460 H   0  0  0  0  0  0  0  0  0  0  0  0
   23.7440   15.2960   25.1730 H   0  0  0  0  0  0  0  0  0  0  0  0
   26.0120   13.1700   22.2090 H   0  0  0  0  0  0  0  0  0  0  0  0
   24.8470   11.5680   23.4240 H   0  0  0  0  0  0  0  0  0  0  0  0
   22.0040   11.5090   22.5300 H   0  0  0  0  0  0  0  0  0  0  0  0
   24.1650    9.3670   22.2720 H   0  0  0  0  0  0  0  0  0  0  0  0
   22.5770    9.3430   21.5150 H   0  0  0  0  0  0  0  0  0  0  0  0
   22.0900   11.8770   20.2660 H   0  0  0  0  0  0  0  0  0  0  0  0
   25.3850   12.8750   17.7490 H   0  0  0  0  0  0  0  0  0  0  0  0
   25.8820    9.8650   20.7390 H   0  0  0  0  0  0  0  0  0  0  0  0
   21.7360    9.3670   23.8930 H   0  0  0  0  0  0  0  0  0  0  0  0
   24.0920   10.4400   25.0680 H   0  0  0  0  0  0  0  0  0  0  0  0
   20.7220   11.6310   24.5220 H   0  0  0  0  0  0  0  0  0  0  0  0
   22.1330   11.8880   25.6130 H   0  0  0  0  0  0  0  0  0  0  0  0
   20.3760    9.5270   25.7310 H   0  0  0  0  0  0  0  0  0  0  0  0
   21.6320    9.8700   26.7140 H   0  0  0  0  0  0  0  0  0  0  0  0
   19.6260   10.3470   27.8330 H   0  0  0  0  0  0  0  0  0  0  0  0
   20.5320   11.8440   27.5440 H   0  0  0  0  0  0  0  0  0  0  0  0
   19.0970   13.6640   26.8810 H   0  0  0  0  0  0  0  0  0  0  0  0
   17.1940   14.5300   25.5990 H   0  0  0  0  0  0  0  0  0  0  0  0
   15.7690   13.0350   24.2960 H   0  0  0  0  0  0  0  0  0  0  0  0
   14.6580    9.8570   22.8530 H   0  0  0  0  0  0  0  0  0  0  0  0
   15.4540   11.4080   22.5630 H   0  0  0  0  0  0  0  0  0  0  0  0
   14.3040   11.2030   23.9410 H   0  0  0  0  0  0  0  0  0  0  0  0
   18.0760    9.6700   25.6080 H   0  0  0  0  0  0  0  0  0  0  0  0
  1  2  1  0  0  0  0
  1 46  1  0  0  0  0
  1 47  1  0  0  0  0
  1 48  1  0  0  0  0
  2  3  1  0  0  0  0
  2 49  1  0  0  0  0
  2 50  1  0  0  0  0
  3  4  1  0  0  0  0
  3 51  1  0  0  0  0
  3 52  1  0  0  0  0
  4  5  1  0  0  0  0
  4  8  1  0  0  0  0
  5  6  1  0  0  0  0
  5 53  1  0  0  0  0
  5 54  1  0  0  0  0
  6  7  1  0  0  0  0
  6 55  1  0  0  0  0
  6 56  1  0  0  0  0
  7 57  1  0  0  0  0
  7 58  1  0  0  0  0
  7 59  1  0  0  0  0
  8  9  2  0  0  0  0
  8 10  1  0  0  0  0
 10 11  1  0  0  0  0
 10 19  2  0  0  0  0
 11 12  2  0  0  0  0
 11 60  1  0  0  0  0
 12 13  1  0  0  0  0
 12 17  1  0  0  0  0
 13 14  1  0  0  0  0
 13 61  1  0  0  0  0
 13 62  1  0  0  0  0
 14 15  1  0  0  0  0
 14 16  1  0  0  0  0
 14 63  1  0  0  0  0
 15 64  1  0  0  0  0
 15 65  1  0  0  0  0
 15 66  1  0  0  0  0
 16 67  1  0  0  0  0
 17 18  2  0  0  0  0
 17 68  1  0  0  0  0
 18 19  1  0  0  0  0
 18 20  1  0  0  0  0
 19 69  1  0  0  0  0
 20 21  2  0  0  0  0
 20 22  1  0  0  0  0
 22 23  1  0  0  0  0
 22 70  1  0  0  0  0
 23 24  1  0  0  0  0
 23 33  1  0  0  0  0
 23 71  1  0  0  0  0
 24 25  1  0  0  0  0
 24 72  1  0  0  0  0
 24 73  1  0  0  0  0
 25 26  1  0  0  0  0
 25 32  2  0  0  0  0
 26 27  2  0  0  0  0
 26 74  1  0  0  0  0
 27 28  1  0  0  0  0
 27 29  1  0  0  0  0
 29 30  2  0  0  0  0
 29 75  1  0  0  0  0
 30 31  1  0  0  0  0
 30 32  1  0  0  0  0
 32 76  1  0  0  0  0
 33 34  1  0  0  0  0
 33 35  1  0  0  0  0
 33 77  1  0  0  0  0
 34 78  1  0  0  0  0
 35 36  1  0  0  0  0
 35 79  1  0  0  0  0
 35 80  1  0  0  0  0
 36 37  1  0  0  0  0
 36 81  1  0  0  0  0
 36 82  1  0  0  0  0
 37 38  1  0  0  0  0
 37 83  1  0  0  0  0
 37 84  1  0  0  0  0
 38 39  1  0  0  0  0
 38 45  2  0  0  0  0
 39 40  2  0  0  0  0
 39 85  1  0  0  0  0
 40 41  1  0  0  0  0
 40 86  1  0  0  0  0
 41 42  2  0  0  0  0
 41 87  1  0  0  0  0
 42 43  1  0  0  0  0
 42 45  1  0  0  0  0
 43 44  1  0  0  0  0
 44 88  1  0  0  0  0
 44 89  1  0  0  0  0
 44 90  1  0  0  0  0
 45 91  1  0  0  0  0
M  CHG  1  36   1
M  END
>  <PARENT_CMPD_ID>
CHEMBL552743

>  <STANDARD_TYPE>
IC50

>  <RELATION>
=

>  <STANDARD_VALUE>
16

>  <STANDARD_UNITS>
nM

>  <COMPOUND_KEY>
1k

>  <PUBMED_ID>
19375914

>  <JOURNAL>
Bioorg. Med. Chem. Lett.

>  <YEAR>
2009

>  <VOLUME>
19

>  <FIRST_PAGE>
2654

>  <Company>
BMS

>  <idx>
460

>  <Model>
Valid

>  <target>
7.7958798

>  <des_pred_mlr>
7.7590098

>  <RF_Canvas>
7.7176914

>  <DNN_Canvas>
7.4051442

>  <pred_CoMFA>
6.8213

>  <pred_COMSIA>
8.7063999

>  <pred_abm5>
7.2746301

>  <pred_ff8>
6.881794

>  <pred_gau6>
7.2943339

>  <CID>
BACE_460

>  <active>
1

>  <des_class_bayes>
1

>  <maacs_class_bayes>
1

>  <radial_class_bayes>
1

>  <dend_class_bayes>
1

>  <molprint_class_bayes>
1

>  <RF_canvas>
1

>  <DNN_canvas>
1

$$$$
21707077_48
  MOE2015           3D

 67 70  0  0  1  0  0  0  0  0999 V2000
   20.6840   12.9840   18.6770 C   0  0  0  0  0  0  0  0  0  0  0  0
   21.5510   13.9710   18.1770 C   0  0  0  0  0  0  0  0  0  0  0  0
   21.1300   14.7940   17.1310 C   0  0  0  0  0  0  0  0  0  0  0  0
   21.7910   15.5560   16.7450 H   0  0  0  0  0  0  0  0  0  0  0  0
   21.0450   12.1310   19.7240 C   0  0  0  0  0  0  0  0  0  0  0  0
   21.2420   10.7720   19.4700 C   0  0  0  0  0  0  0  0  0  0  0  0
   21.1250   10.3900   18.4660 H   0  0  0  0  0  0  0  0  0  0  0  0
   21.1810   12.6190   21.0270 C   0  0  0  0  0  0  0  0  0  0  0  0
   21.0110   13.6660   21.2330 H   0  0  0  0  0  0  0  0  0  0  0  0
   22.0390   11.3280   24.3910 C   0  0  0  0  0  0  0  0  0  0  0  0
   22.9680   14.1880   18.7410 C   0  0  0  0  0  0  0  0  0  0  0  0
   23.1510   13.4760   19.5460 H   0  0  0  0  0  0  0  0  0  0  0  0
   23.0540   15.2040   19.1270 H   0  0  0  0  0  0  0  0  0  0  0  0
   23.7010   14.0370   17.9490 H   0  0  0  0  0  0  0  0  0  0  0  0
   21.0080   11.4300   26.6850 C   0  0  3  0  0  0  0  0  0  0  0  0
   21.0070   10.3410   26.6490 H   0  0  0  0  0  0  0  0  0  0  0  0
   19.6570   11.9440   26.1690 C   0  0  0  0  0  0  0  0  0  0  0  0
   17.0580   11.1470   23.9620 C   0  0  0  0  0  0  0  0  0  0  0  0
   16.0110   11.4300   23.8540 H   0  0  0  0  0  0  0  0  0  0  0  0
   16.7470    9.5670   22.0290 C   0  0  0  0  0  0  0  0  0  0  0  0
   15.6760    9.7680   21.9920 H   0  0  0  0  0  0  0  0  0  0  0  0
   16.9380    8.5500   21.6870 H   0  0  0  0  0  0  0  0  0  0  0  0
   17.4250   11.9910   21.6230 C   0  0  0  0  0  0  0  0  0  0  0  0
   16.3990   12.3560   21.5740 H   0  0  0  0  0  0  0  0  0  0  0  0
   18.0640   12.6190   21.0020 H   0  0  0  0  0  0  0  0  0  0  0  0
   17.2290    9.7010   23.4910 C   0  0  0  0  0  0  0  0  0  0  0  0
   16.6410    9.0410   24.1280 H   0  0  0  0  0  0  0  0  0  0  0  0
   18.2810    9.4220   23.5520 H   0  0  0  0  0  0  0  0  0  0  0  0
   17.4700   10.5510   21.0900 C   0  0  0  0  0  0  0  0  0  0  0  0
   16.9890   10.5220   20.1120 H   0  0  0  0  0  0  0  0  0  0  0  0
   18.5110   10.2440   20.9920 H   0  0  0  0  0  0  0  0  0  0  0  0
   17.9140   12.0650   23.0810 C   0  0  0  0  0  0  0  0  0  0  0  0
   18.9550   11.7460   23.1300 H   0  0  0  0  0  0  0  0  0  0  0  0
   17.8310   13.0910   23.4390 H   0  0  0  0  0  0  0  0  0  0  0  0
   17.3750   11.3150   25.4590 C   0  0  0  0  0  0  0  0  0  0  0  0
   16.7010   10.6640   26.0150 H   0  0  0  0  0  0  0  0  0  0  0  0
   17.1780   12.3540   25.7240 H   0  0  0  0  0  0  0  0  0  0  0  0
   18.7600   10.9970   25.8830 N   0  0  0  0  0  0  0  0  0  0  0  0
   19.0350   10.0280   25.9580 H   0  0  0  0  0  0  0  0  0  0  0  0
   19.4450   13.1560   26.0680 O   0  0  0  0  0  0  0  0  0  0  0  0
   21.1960   11.9200   28.1360 C   0  0  0  0  0  0  0  0  0  0  0  0
   21.2160   13.0100   28.1450 H   0  0  0  0  0  0  0  0  0  0  0  0
   22.1340   11.5190   28.5200 H   0  0  0  0  0  0  0  0  0  0  0  0
   20.0460   11.4290   29.0360 C   0  0  0  0  0  0  0  0  0  0  0  0
   20.1660   10.3580   29.2000 H   0  0  0  0  0  0  0  0  0  0  0  0
   19.1020   11.6150   28.5250 H   0  0  0  0  0  0  0  0  0  0  0  0
   20.0570   11.9510   29.9930 H   0  0  0  0  0  0  0  0  0  0  0  0
   22.1780   11.9070   25.8040 C   0  0  0  0  0  0  0  0  0  0  0  0
   22.1690   12.9960   25.7510 H   0  0  0  0  0  0  0  0  0  0  0  0
   23.1190   11.5720   26.2410 H   0  0  0  0  0  0  0  0  0  0  0  0
   22.2250    9.9790   24.0560 C   0  0  0  0  0  0  0  0  0  0  0  0
   22.0720    9.5580   22.7890 N   0  0  0  0  0  0  0  0  0  0  0  0
   22.5620    9.0810   24.9770 N   0  0  0  0  0  0  0  0  0  0  0  0
   22.6950    8.1150   24.7150 H   0  0  0  0  0  0  0  0  0  0  0  0
   22.6850    9.3650   25.9380 H   0  0  0  0  0  0  0  0  0  0  0  0
   21.6890   12.2170   23.3710 C   0  0  0  0  0  0  0  0  0  0  0  0
   21.5360   13.2630   23.5940 H   0  0  0  0  0  0  0  0  0  0  0  0
   21.5370   11.7510   22.0630 C   0  0  0  0  0  0  0  0  0  0  0  0
   21.7360   10.3970   21.7980 C   0  0  0  0  0  0  0  0  0  0  0  0
   21.5880    9.9070   20.5040 C   0  0  0  0  0  0  0  0  0  0  0  0
   21.7410    8.8570   20.3020 H   0  0  0  0  0  0  0  0  0  0  0  0
   19.4110   12.8350   18.1190 C   0  0  0  0  0  0  0  0  0  0  0  0
   18.7440   12.0760   18.4990 H   0  0  0  0  0  0  0  0  0  0  0  0
   18.9990   13.6590   17.0770 C   0  0  0  0  0  0  0  0  0  0  0  0
   18.0130   13.5420   16.6520 H   0  0  0  0  0  0  0  0  0  0  0  0
   19.8580   14.6340   16.5830 C   0  0  0  0  0  0  0  0  0  0  0  0
   19.5390   15.2700   15.7710 H   0  0  0  0  0  0  0  0  0  0  0  0
  1  2  2  0  0  0  0
  1  5  1  0  0  0  0
  1 62  1  0  0  0  0
  2  3  1  0  0  0  0
  2 11  1  0  0  0  0
  3  4  1  0  0  0  0
  3 66  2  0  0  0  0
  5  6  1  0  0  0  0
  5  8  2  0  0  0  0
  6  7  1  0  0  0  0
  6 60  2  0  0  0  0
  8  9  1  0  0  0  0
  8 58  1  0  0  0  0
 10 48  1  0  0  0  0
 10 51  2  0  0  0  0
 10 56  1  0  0  0  0
 11 12  1  0  0  0  0
 11 13  1  0  0  0  0
 11 14  1  0  0  0  0
 15 16  1  0  0  0  0
 15 17  1  0  0  0  0
 15 41  1  0  0  0  0
 15 48  1  0  0  0  0
 17 38  1  0  0  0  0
 17 40  2  0  0  0  0
 18 19  1  0  0  0  0
 18 26  1  0  0  0  0
 18 32  1  0  0  0  0
 18 35  1  0  0  0  0
 20 21  1  0  0  0  0
 20 22  1  0  0  0  0
 20 26  1  0  0  0  0
 20 29  1  0  0  0  0
 23 24  1  0  0  0  0
 23 25  1  0  0  0  0
 23 29  1  0  0  0  0
 23 32  1  0  0  0  0
 26 27  1  0  0  0  0
 26 28  1  0  0  0  0
 29 30  1  0  0  0  0
 29 31  1  0  0  0  0
 32 33  1  0  0  0  0
 32 34  1  0  0  0  0
 35 36  1  0  0  0  0
 35 37  1  0  0  0  0
 35 38  1  0  0  0  0
 38 39  1  0  0  0  0
 41 42  1  0  0  0  0
 41 43  1  0  0  0  0
 41 44  1  0  0  0  0
 44 45  1  0  0  0  0
 44 46  1  0  0  0  0
 44 47  1  0  0  0  0
 48 49  1  0  0  0  0
 48 50  1  0  0  0  0
 51 52  1  0  0  0  0
 51 53  1  0  0  0  0
 52 59  2  0  0  0  0
 53 54  1  0  0  0  0
 53 55  1  0  0  0  0
 56 57  1  0  0  0  0
 56 58  2  0  0  0  0
 58 59  1  0  0  0  0
 59 60  1  0  0  0  0
 60 61  1  0  0  0  0
 62 63  1  0  0  0  0
 62 64  2  0  0  0  0
 64 65  1  0  0  0  0
 64 66  1  0  0  0  0
 66 67  1  0  0  0  0
M  END
>  <PARENT_CMPD_ID>
21707077_48

>  <STANDARD_TYPE>
IC50

>  <RELATION>
=

>  <STANDARD_VALUE>
0.016000001

>  <STANDARD_UNITS>
uM

>  <COMPOUND_KEY>
48

>  <PUBMED_ID>
21707077

>  <JOURNAL>
J.Med.Chem.

>  <YEAR>
2011

>  <VOLUME>
54

>  <FIRST_PAGE>
5836

>  <Company>
Amgen

>  <idx>
461

>  <Model>
Valid

>  <target>
7.7958798

>  <des_pred_mlr>
7.5441999

>  <RF_Canvas>
7.2160401

>  <DNN_Canvas>
7.3498244

>  <pred_CoMFA>
7.9015002

>  <pred_COMSIA>
8.2846003

>  <pred_abm5>
8.3218994

>  <pred_ff8>
6.1152663

>  <pred_gau6>
7.965878

>  <CID>
BACE_461

>  <active>
1

>  <des_class_bayes>
1

>  <maacs_class_bayes>
0

>  <radial_class_bayes>
1

>  <dend_class_bayes>
1

>  <molprint_class_bayes>
1

>  <RF_canvas>
1

>  <DNN_canvas>
1

$$$$
21707077_58
  MOE2015           3D

 62 64  0  0  1  0  0  0  0  0999 V2000
   20.6840   12.9840   18.6770 C   0  0  0  0  0  0  0  0  0  0  0  0
   21.5510   13.9710   18.1770 C   0  0  0  0  0  0  0  0  0  0  0  0
   21.1300   14.7940   17.1310 C   0  0  0  0  0  0  0  0  0  0  0  0
   21.7910   15.5560   16.7450 H   0  0  0  0  0  0  0  0  0  0  0  0
   21.0450   12.1310   19.7240 C   0  0  0  0  0  0  0  0  0  0  0  0
   21.2420   10.7720   19.4700 C   0  0  0  0  0  0  0  0  0  0  0  0
   21.1250   10.3900   18.4660 H   0  0  0  0  0  0  0  0  0  0  0  0
   21.1810   12.6190   21.0270 C   0  0  0  0  0  0  0  0  0  0  0  0
   21.0110   13.6660   21.2330 H   0  0  0  0  0  0  0  0  0  0  0  0
   22.0390   11.3280   24.3910 C   0  0  0  0  0  0  0  0  0  0  0  0
   22.9680   14.1880   18.7410 C   0  0  0  0  0  0  0  0  0  0  0  0
   23.1510   13.4760   19.5460 H   0  0  0  0  0  0  0  0  0  0  0  0
   23.0540   15.2040   19.1270 H   0  0  0  0  0  0  0  0  0  0  0  0
   23.7010   14.0370   17.9490 H   0  0  0  0  0  0  0  0  0  0  0  0
   21.0080   11.4300   26.6850 C   0  0  3  0  0  0  0  0  0  0  0  0
   21.0070   10.3410   26.6490 H   0  0  0  0  0  0  0  0  0  0  0  0
   19.6570   11.9440   26.1690 C   0  0  0  0  0  0  0  0  0  0  0  0
   17.0580   11.1470   23.9620 C   0  0  0  0  0  0  0  0  0  0  0  0
   16.0110   11.4300   23.8540 H   0  0  0  0  0  0  0  0  0  0  0  0
   17.7370   11.7550   23.3650 H   0  0  0  0  0  0  0  0  0  0  0  0
   16.7470    9.5670   22.0290 C   0  0  0  0  0  0  0  0  0  0  0  0
   15.6760    9.7680   21.9920 H   0  0  0  0  0  0  0  0  0  0  0  0
   16.9380    8.5500   21.6870 H   0  0  0  0  0  0  0  0  0  0  0  0
   17.2760   10.2740   21.3900 H   0  0  0  0  0  0  0  0  0  0  0  0
   17.2290    9.7010   23.4910 C   0  0  0  0  0  0  0  0  0  0  0  0
   16.4150    8.7880   24.3730 C   0  0  0  0  0  0  0  0  0  0  0  0
   16.5360    7.7570   24.0380 H   0  0  0  0  0  0  0  0  0  0  0  0
   15.3630    9.0680   24.3140 H   0  0  0  0  0  0  0  0  0  0  0  0
   16.7580    8.8770   25.4040 H   0  0  0  0  0  0  0  0  0  0  0  0
   18.6840    9.3150   23.5750 C   0  0  0  0  0  0  0  0  0  0  0  0
   18.8070    8.2850   23.2400 H   0  0  0  0  0  0  0  0  0  0  0  0
   19.0250    9.4040   24.6070 H   0  0  0  0  0  0  0  0  0  0  0  0
   19.2730    9.9770   22.9400 H   0  0  0  0  0  0  0  0  0  0  0  0
   17.3750   11.3150   25.4590 C   0  0  0  0  0  0  0  0  0  0  0  0
   16.7010   10.6640   26.0150 H   0  0  0  0  0  0  0  0  0  0  0  0
   17.1780   12.3540   25.7240 H   0  0  0  0  0  0  0  0  0  0  0  0
   18.7600   10.9970   25.8830 N   0  0  0  0  0  0  0  0  0  0  0  0
   19.0350   10.0280   25.9580 H   0  0  0  0  0  0  0  0  0  0  0  0
   19.4450   13.1560   26.0680 O   0  0  0  0  0  0  0  0  0  0  0  0
   21.1960   11.9200   28.1360 C   0  0  0  0  0  0  0  0  0  0  0  0
   21.2160   13.0100   28.1450 H   0  0  0  0  0  0  0  0  0  0  0  0
   22.1400   11.5360   28.5230 H   0  0  0  0  0  0  0  0  0  0  0  0
   20.3740   11.5640   28.7580 H   0  0  0  0  0  0  0  0  0  0  0  0
   22.1780   11.9070   25.8040 C   0  0  0  0  0  0  0  0  0  0  0  0
   22.1690   12.9960   25.7510 H   0  0  0  0  0  0  0  0  0  0  0  0
   23.1190   11.5720   26.2410 H   0  0  0  0  0  0  0  0  0  0  0  0
   22.2250    9.9790   24.0560 C   0  0  0  0  0  0  0  0  0  0  0  0
   22.0720    9.5580   22.7890 N   0  0  0  0  0  0  0  0  0  0  0  0
   22.5620    9.0810   24.9770 N   0  0  0  0  0  0  0  0  0  0  0  0
   22.6950    8.1150   24.7150 H   0  0  0  0  0  0  0  0  0  0  0  0
   22.6850    9.3650   25.9380 H   0  0  0  0  0  0  0  0  0  0  0  0
   21.6890   12.2170   23.3710 C   0  0  0  0  0  0  0  0  0  0  0  0
   21.5360   13.2630   23.5940 H   0  0  0  0  0  0  0  0  0  0  0  0
   21.5370   11.7510   22.0630 C   0  0  0  0  0  0  0  0  0  0  0  0
   21.7360   10.3970   21.7980 C   0  0  0  0  0  0  0  0  0  0  0  0
   21.5880    9.9070   20.5040 C   0  0  0  0  0  0  0  0  0  0  0  0
   21.7410    8.8570   20.3020 H   0  0  0  0  0  0  0  0  0  0  0  0
   19.4110   12.8350   18.1190 N   0  0  0  0  0  0  0  0  0  0  0  0
   18.9990   13.6590   17.0770 C   0  0  0  0  0  0  0  0  0  0  0  0
   18.0130   13.5420   16.6520 H   0  0  0  0  0  0  0  0  0  0  0  0
   19.8580   14.6340   16.5830 C   0  0  0  0  0  0  0  0  0  0  0  0
   19.5390   15.2700   15.7710 H   0  0  0  0  0  0  0  0  0  0  0  0
  1  2  2  0  0  0  0
  1  5  1  0  0  0  0
  1 58  1  0  0  0  0
  2  3  1  0  0  0  0
  2 11  1  0  0  0  0
  3  4  1  0  0  0  0
  3 61  2  0  0  0  0
  5  6  1  0  0  0  0
  5  8  2  0  0  0  0
  6  7  1  0  0  0  0
  6 56  2  0  0  0  0
  8  9  1  0  0  0  0
  8 54  1  0  0  0  0
 10 44  1  0  0  0  0
 10 47  2  0  0  0  0
 10 52  1  0  0  0  0
 11 12  1  0  0  0  0
 11 13  1  0  0  0  0
 11 14  1  0  0  0  0
 15 16  1  0  0  0  0
 15 17  1  0  0  0  0
 15 40  1  0  0  0  0
 15 44  1  0  0  0  0
 17 37  1  0  0  0  0
 17 39  2  0  0  0  0
 18 19  1  0  0  0  0
 18 20  1  0  0  0  0
 18 25  1  0  0  0  0
 18 34  1  0  0  0  0
 21 22  1  0  0  0  0
 21 23  1  0  0  0  0
 21 24  1  0  0  0  0
 21 25  1  0  0  0  0
 25 26  1  0  0  0  0
 25 30  1  0  0  0  0
 26 27  1  0  0  0  0
 26 28  1  0  0  0  0
 26 29  1  0  0  0  0
 30 31  1  0  0  0  0
 30 32  1  0  0  0  0
 30 33  1  0  0  0  0
 34 35  1  0  0  0  0
 34 36  1  0  0  0  0
 34 37  1  0  0  0  0
 37 38  1  0  0  0  0
 40 41  1  0  0  0  0
 40 42  1  0  0  0  0
 40 43  1  0  0  0  0
 44 45  1  0  0  0  0
 44 46  1  0  0  0  0
 47 48  1  0  0  0  0
 47 49  1  0  0  0  0
 48 55  2  0  0  0  0
 49 50  1  0  0  0  0
 49 51  1  0  0  0  0
 52 53  1  0  0  0  0
 52 54  2  0  0  0  0
 54 55  1  0  0  0  0
 55 56  1  0  0  0  0
 56 57  1  0  0  0  0
 58 59  2  0  0  0  0
 59 60  1  0  0  0  0
 59 61  1  0  0  0  0
 61 62  1  0  0  0  0
M  END
>  <PARENT_CMPD_ID>
21707077_58

>  <STANDARD_TYPE>
IC50

>  <RELATION>
=

>  <STANDARD_VALUE>
0.016000001

>  <STANDARD_UNITS>
uM

>  <COMPOUND_KEY>
58

>  <PUBMED_ID>
21707077

>  <JOURNAL>
J.Med.Chem.

>  <YEAR>
2011

>  <VOLUME>
54

>  <FIRST_PAGE>
5836

>  <Company>
Amgen

>  <idx>
462

>  <Model>
Valid

>  <target>
7.7958798

>  <des_pred_mlr>
7.5327301

>  <RF_Canvas>
6.6400628

>  <DNN_Canvas>
7.4615331

>  <pred_CoMFA>
7.2951002

>  <pred_COMSIA>
6.6645002

>  <pred_abm5>
7.402081

>  <pred_ff8>
5.9371986

>  <pred_gau6>
7.0364475

>  <CID>
BACE_462

>  <active>
1

>  <des_class_bayes>
1

>  <maacs_class_bayes>
0

>  <radial_class_bayes>
1

>  <dend_class_bayes>
1

>  <molprint_class_bayes>
1

>  <RF_canvas>
0

>  <DNN_canvas>
1

$$$$
CHEMBL1916005
  MOE2015           3D

 83 86  0  0  1  0  0  0  0  0999 V2000
   25.1250   20.4600   25.3770 C   0  0  0  0  0  0  0  0  0  0  0  0
   25.0110   21.5340   25.3990 H   0  0  0  0  0  0  0  0  0  0  0  0
   24.5530   19.6790   26.3820 C   0  0  0  0  0  0  0  0  0  0  0  0
   23.9970   20.1390   27.1860 H   0  0  0  0  0  0  0  0  0  0  0  0
   25.8500   19.8520   24.3350 C   0  0  0  0  0  0  0  0  0  0  0  0
   26.2880   20.4650   23.5610 H   0  0  0  0  0  0  0  0  0  0  0  0
   24.7120   18.2920   26.3300 C   0  0  0  0  0  0  0  0  0  0  0  0
   24.2700   17.6760   27.0990 H   0  0  0  0  0  0  0  0  0  0  0  0
   26.0110   18.4630   24.2890 C   0  0  0  0  0  0  0  0  0  0  0  0
   26.5700   17.9990   23.4900 H   0  0  0  0  0  0  0  0  0  0  0  0
   23.1870   11.8460   20.3250 C   0  0  0  0  0  0  0  0  0  0  0  0
   22.2260   12.1450   20.7180 H   0  0  0  0  0  0  0  0  0  0  0  0
   25.1040   10.4330   20.3920 C   0  0  0  0  0  0  0  0  0  0  0  0
   25.6580    9.6180   20.8340 H   0  0  0  0  0  0  0  0  0  0  0  0
   24.9360   12.1640   18.6930 C   0  0  0  0  0  0  0  0  0  0  0  0
   25.3360   12.6830   17.8350 H   0  0  0  0  0  0  0  0  0  0  0  0
   25.4350   17.6910   25.2960 C   0  0  0  0  0  0  0  0  0  0  0  0
   23.8700   10.7920   20.9260 C   0  0  0  0  0  0  0  0  0  0  0  0
   23.7120   12.5220   19.2320 C   0  0  0  0  0  0  0  0  0  0  0  0
   25.6390   11.1160   19.2860 C   0  0  0  0  0  0  0  0  0  0  0  0
   27.1750   13.4880   23.6660 C   0  0  0  0  0  0  0  0  0  0  0  0
   23.6640   13.1990   23.8080 C   0  0  0  0  0  0  0  0  0  0  0  0
   27.2350   14.1150   21.3400 C   0  0  0  0  0  0  0  0  0  0  0  0
   27.5580   15.1550   21.2900 H   0  0  0  0  0  0  0  0  0  0  0  0
   27.3370   13.6550   20.3570 H   0  0  0  0  0  0  0  0  0  0  0  0
   20.4890   11.9020   25.1990 C   0  0  0  0  0  0  0  0  0  0  0  0
   20.8500   12.9300   25.1550 H   0  0  0  0  0  0  0  0  0  0  0  0
   20.0890   11.6150   24.2260 H   0  0  0  0  0  0  0  0  0  0  0  0
   25.8080   13.9890   21.8800 C   0  0  0  0  0  0  0  0  0  0  0  0
   25.3190   13.1130   21.4530 H   0  0  0  0  0  0  0  0  0  0  0  0
   25.2320   14.8820   21.6350 H   0  0  0  0  0  0  0  0  0  0  0  0
   20.1540   11.0320   27.3770 C   0  0  0  0  0  0  0  0  0  0  0  0
   19.4610   10.5130   28.0390 H   0  0  0  0  0  0  0  0  0  0  0  0
   20.7690   11.7180   27.9600 H   0  0  0  0  0  0  0  0  0  0  0  0
   19.4070   11.7700   26.2720 C   0  0  3  0  0  0  0  0  0  0  0  0
   18.8720   13.0260   26.6560 O   0  0  0  0  0  0  0  0  0  0  0  0
   18.4280   13.3980   25.8910 H   0  0  0  0  0  0  0  0  0  0  0  0
   18.5120   11.2380   25.9510 H   0  0  0  0  0  0  0  0  0  0  0  0
   21.6380   10.9530   25.6010 C   0  0  3  0  0  0  0  0  0  0  0  0
   22.4980   11.5110   25.9720 H   0  0  0  0  0  0  0  0  0  0  0  0
   27.9980   13.3320   22.4170 C   0  0  3  0  0  0  0  0  0  0  0  0
   29.0320   13.6410   22.5690 H   0  0  0  0  0  0  0  0  0  0  0  0
   25.5880   16.1920   25.2840 C   0  0  0  0  0  0  0  0  0  0  0  0
   25.5430   15.8240   26.3090 H   0  0  0  0  0  0  0  0  0  0  0  0
   26.5550   15.9390   24.8500 H   0  0  0  0  0  0  0  0  0  0  0  0
   23.2770   10.0620   22.1220 C   0  0  0  0  0  0  0  0  0  0  0  0
   24.0490    9.4200   22.5450 H   0  0  0  0  0  0  0  0  0  0  0  0
   22.4480    9.4490   21.7690 H   0  0  0  0  0  0  0  0  0  0  0  0
   27.8650   11.8720   21.9640 C   0  0  3  0  0  0  0  0  0  0  0  0
   27.0780   11.8930   20.6780 C   0  0  0  0  0  0  0  0  0  0  0  0
   26.9540   10.8740   20.3110 H   0  0  0  0  0  0  0  0  0  0  0  0
   27.8170   12.7110   19.6490 C   0  0  0  0  0  0  0  0  0  0  0  0
   27.2490   12.7260   18.7200 H   0  0  0  0  0  0  0  0  0  0  0  0
   29.1730   12.0990   19.3990 C   0  0  0  0  0  0  0  0  0  0  0  0
   29.7070   12.6900   18.6560 H   0  0  0  0  0  0  0  0  0  0  0  0
   29.0490   11.0800   19.0330 H   0  0  0  0  0  0  0  0  0  0  0  0
   29.7420   12.0840   20.3290 H   0  0  0  0  0  0  0  0  0  0  0  0
   27.9410   13.7300   20.0160 H   0  0  0  0  0  0  0  0  0  0  0  0
   26.0980   12.3350   20.8580 H   0  0  0  0  0  0  0  0  0  0  0  0
   27.2880   11.3610   22.7350 H   0  0  0  0  0  0  0  0  0  0  0  0
   29.1140   11.2290   21.7700 O   0  0  0  0  0  0  0  0  0  0  0  0
   28.9360   10.3280   21.4900 H   0  0  0  0  0  0  0  0  0  0  0  0
   24.4840   15.5150   24.4650 C   0  0  0  0  0  0  0  0  0  0  0  0
   24.4070   15.9970   23.4900 H   0  0  0  0  0  0  0  0  0  0  0  0
   23.5340   15.6050   24.9910 H   0  0  0  0  0  0  0  0  0  0  0  0
   24.8240   14.0400   24.2780 C   0  0  3  0  0  0  0  0  0  0  0  0
   25.1090   13.7090   25.2770 H   0  0  0  0  0  0  0  0  0  0  0  0
   22.2260   10.1380   24.4290 C   0  0  3  0  0  0  0  0  0  0  0  0
   23.1120    9.6280   24.8060 H   0  0  0  0  0  0  0  0  0  0  0  0
   22.7500   10.9840   23.2440 C   0  0  3  0  0  0  0  0  0  0  0  0
   21.9310   11.5870   22.8520 H   0  0  0  0  0  0  0  0  0  0  0  0
   21.0040   10.0590   26.6180 N   0  3  0  0  0  0  0  0  0  0  0  0
   20.4440    9.3410   26.1810 H   0  0  0  0  0  0  0  0  0  0  0  0
   21.6960    9.6290   27.2150 H   0  0  0  0  0  0  0  0  0  0  0  0
   25.9260   13.8440   23.3410 N   0  0  0  0  0  0  0  0  0  0  0  0
   23.8270   11.8630   23.7040 N   0  0  0  0  0  0  0  0  0  0  0  0
   24.7190   11.4580   23.9510 H   0  0  0  0  0  0  0  0  0  0  0  0
   27.5680   13.2710   24.7900 O   0  0  0  0  0  0  0  0  0  0  0  0
   22.5950   13.7100   23.5250 O   0  0  0  0  0  0  0  0  0  0  0  0
   21.2320    9.2070   23.9900 O   0  0  0  0  0  0  0  0  0  0  0  0
   20.4810    9.7130   23.6710 H   0  0  0  0  0  0  0  0  0  0  0  0
   23.0210   13.5220   18.6820 F   0  0  0  0  0  0  0  0  0  0  0  0
   26.8390   10.7710   18.7780 F   0  0  0  0  0  0  0  0  0  0  0  0
  1  2  1  0  0  0  0
  1  3  2  0  0  0  0
  1  5  1  0  0  0  0
  3  4  1  0  0  0  0
  3  7  1  0  0  0  0
  5  6  1  0  0  0  0
  5  9  2  0  0  0  0
  7  8  1  0  0  0  0
  7 17  2  0  0  0  0
  9 10  1  0  0  0  0
  9 17  1  0  0  0  0
 11 12  1  0  0  0  0
 11 18  2  0  0  0  0
 11 19  1  0  0  0  0
 13 14  1  0  0  0  0
 13 18  1  0  0  0  0
 13 20  2  0  0  0  0
 15 16  1  0  0  0  0
 15 19  2  0  0  0  0
 15 20  1  0  0  0  0
 17 43  1  0  0  0  0
 18 46  1  0  0  0  0
 19 82  1  0  0  0  0
 20 83  1  0  0  0  0
 21 41  1  0  0  0  0
 21 75  1  0  0  0  0
 21 78  2  0  0  0  0
 22 66  1  0  0  0  0
 22 76  1  0  0  0  0
 22 79  2  0  0  0  0
 23 24  1  0  0  0  0
 23 25  1  0  0  0  0
 23 29  1  0  0  0  0
 23 41  1  0  0  0  0
 26 27  1  0  0  0  0
 26 28  1  0  0  0  0
 26 35  1  0  0  0  0
 26 39  1  0  0  0  0
 29 30  1  0  0  0  0
 29 31  1  0  0  0  0
 29 75  1  0  0  0  0
 32 33  1  0  0  0  0
 32 34  1  0  0  0  0
 32 35  1  0  0  0  0
 32 72  1  0  0  0  0
 35 36  1  0  0  0  0
 35 38  1  0  0  0  0
 36 37  1  0  0  0  0
 39 40  1  0  0  0  0
 39 68  1  0  0  0  0
 39 72  1  0  0  0  0
 41 42  1  0  0  0  0
 41 49  1  0  0  0  0
 43 44  1  0  0  0  0
 43 45  1  0  0  0  0
 43 63  1  0  0  0  0
 46 47  1  0  0  0  0
 46 48  1  0  0  0  0
 46 70  1  0  0  0  0
 49 50  1  0  0  0  0
 49 60  1  0  0  0  0
 49 61  1  0  0  0  0
 50 51  1  0  0  0  0
 50 52  1  0  0  0  0
 50 59  1  0  0  0  0
 52 53  1  0  0  0  0
 52 54  1  0  0  0  0
 52 58  1  0  0  0  0
 54 55  1  0  0  0  0
 54 56  1  0  0  0  0
 54 57  1  0  0  0  0
 61 62  1  0  0  0  0
 63 64  1  0  0  0  0
 63 65  1  0  0  0  0
 63 66  1  0  0  0  0
 66 67  1  0  0  0  0
 66 75  1  0  0  0  0
 68 69  1  0  0  0  0
 68 70  1  0  0  0  0
 68 80  1  0  0  0  0
 70 71  1  0  0  0  0
 70 76  1  0  0  0  0
 72 73  1  0  0  0  0
 72 74  1  0  0  0  0
 76 77  1  0  0  0  0
 80 81  1  0  0  0  0
M  CHG  1  72   1
M  END
>  <PARENT_CMPD_ID>
CHEMBL1916005

>  <STANDARD_TYPE>
IC50

>  <RELATION>
=

>  <STANDARD_VALUE>
16

>  <STANDARD_UNITS>
nM

>  <COMPOUND_KEY>
28p

>  <PUBMED_ID>
21782431

>  <JOURNAL>
Bioorg.Med.Chem.Lett.

>  <YEAR>
2011

>  <VOLUME>
21

>  <FIRST_PAGE>
6916

>  <Company>
BMS

>  <idx>
463

>  <Model>
Valid

>  <target>
7.7958798

>  <des_pred_mlr>
6.9600101

>  <RF_Canvas>
7.3435016

>  <DNN_Canvas>
7.2893925

>  <pred_CoMFA>
7.0731001

>  <pred_COMSIA>
6.6178999

>  <pred_abm5>
7.3368425

>  <pred_ff8>
7.7499628

>  <pred_gau6>
7.4042902

>  <CID>
BACE_463

>  <active>
1

>  <des_class_bayes>
1

>  <maacs_class_bayes>
1

>  <radial_class_bayes>
0

>  <dend_class_bayes>
1

>  <molprint_class_bayes>
1

>  <RF_canvas>
1

>  <DNN_canvas>
1

$$$$
CHEMBL1824341
  MOE2015           3D

 56 59  0  0  1  0  0  0  0  0999 V2000
   16.6230   10.9890   21.4690 C   0  0  0  0  0  0  0  0  0  0  0  0
   15.2740   11.6190   21.2280 C   0  0  0  0  0  0  0  0  0  0  0  0
   14.2780   11.0670   22.2170 C   0  0  0  0  0  0  0  0  0  0  0  0
   13.3030   11.5220   22.0430 H   0  0  0  0  0  0  0  0  0  0  0  0
   14.6090   11.2930   23.2310 H   0  0  0  0  0  0  0  0  0  0  0  0
   14.2030    9.9870   22.0920 H   0  0  0  0  0  0  0  0  0  0  0  0
   14.9430   11.3920   20.2150 H   0  0  0  0  0  0  0  0  0  0  0  0
   15.3790   13.1130   21.4010 C   0  0  0  0  0  0  0  0  0  0  0  0
   14.4040   13.5680   21.2270 H   0  0  0  0  0  0  0  0  0  0  0  0
   16.0980   13.5120   20.6860 H   0  0  0  0  0  0  0  0  0  0  0  0
   15.7100   13.3390   22.4150 H   0  0  0  0  0  0  0  0  0  0  0  0
   16.9540   11.2150   22.4820 H   0  0  0  0  0  0  0  0  0  0  0  0
   16.5480    9.9090   21.3450 H   0  0  0  0  0  0  0  0  0  0  0  0
   18.9020   10.9230   20.7310 N   0  0  0  0  0  0  0  0  0  0  0  0
   22.2720   12.9270   22.7600 O   0  0  0  0  0  0  0  0  0  0  0  0
   17.6230   11.5440   20.4750 C   0  0  0  0  0  0  0  0  0  0  0  0
   17.7050   12.6240   20.5980 H   0  0  0  0  0  0  0  0  0  0  0  0
   17.2990   11.3170   19.4590 H   0  0  0  0  0  0  0  0  0  0  0  0
   19.1230    9.6740   20.3070 N   0  0  0  0  0  0  0  0  0  0  0  0
   19.9550   11.4720   21.3840 C   0  0  0  0  0  0  0  0  0  0  0  0
   20.0090   12.4590   21.8180 H   0  0  0  0  0  0  0  0  0  0  0  0
   22.7900   11.1750   24.1580 N   0  0  0  0  0  0  0  0  0  0  0  0
   20.9380   10.5140   21.3800 C   0  0  0  0  0  0  0  0  0  0  0  0
   22.4690    9.3930   22.8380 N   0  0  0  0  0  0  0  0  0  0  0  0
   20.3610    9.4240   20.7010 C   0  0  0  0  0  0  0  0  0  0  0  0
   20.8710    8.4890   20.5220 H   0  0  0  0  0  0  0  0  0  0  0  0
   22.8120    9.0120   25.0300 N   0  0  0  0  0  0  0  0  0  0  0  0
   22.4800    8.0650   24.9150 H   0  0  0  0  0  0  0  0  0  0  0  0
   23.1100    9.3350   25.9390 H   0  0  0  0  0  0  0  0  0  0  0  0
   22.2970   10.5960   21.9830 C   0  0  3  0  0  0  0  0  0  0  0  0
   28.9400    9.6760   21.8070 N   0  0  0  0  0  0  0  0  0  0  0  0
   22.4290   11.7400   22.9820 C   0  0  0  0  0  0  0  0  0  0  0  0
   29.3350   11.8070   20.8130 C   0  0  0  0  0  0  0  0  0  0  0  0
   30.0140   12.6160   20.5870 H   0  0  0  0  0  0  0  0  0  0  0  0
   22.8560    9.8370   23.9800 C   0  0  0  0  0  0  0  0  0  0  0  0
   23.0170   11.9520   25.3510 C   0  0  0  0  0  0  0  0  0  0  0  0
   22.8760   13.0100   25.1280 H   0  0  0  0  0  0  0  0  0  0  0  0
   24.0350   11.7870   25.7040 H   0  0  0  0  0  0  0  0  0  0  0  0
   22.3110   11.6460   26.1230 H   0  0  0  0  0  0  0  0  0  0  0  0
   23.3350   10.8070   20.8720 C   0  0  0  0  0  0  0  0  0  0  0  0
   22.9920   11.0920   19.5340 C   0  0  0  0  0  0  0  0  0  0  0  0
   21.9520   11.1680   19.2540 H   0  0  0  0  0  0  0  0  0  0  0  0
   23.9790   11.2760   18.5700 C   0  0  0  0  0  0  0  0  0  0  0  0
   23.7000   11.4870   17.5480 H   0  0  0  0  0  0  0  0  0  0  0  0
   25.3240   11.1890   18.9180 C   0  0  0  0  0  0  0  0  0  0  0  0
   26.0810   11.3390   18.1620 H   0  0  0  0  0  0  0  0  0  0  0  0
   25.7110   10.9080   20.2410 C   0  0  0  0  0  0  0  0  0  0  0  0
   24.7010   10.7290   21.1920 C   0  0  0  0  0  0  0  0  0  0  0  0
   24.9830   10.5220   22.2140 H   0  0  0  0  0  0  0  0  0  0  0  0
   27.1120   10.8280   20.6810 C   0  0  0  0  0  0  0  0  0  0  0  0
   27.6460    9.7590   21.3920 C   0  0  0  0  0  0  0  0  0  0  0  0
   26.8280    8.7380   21.6900 F   0  0  0  0  0  0  0  0  0  0  0  0
   29.7290   10.7180   21.4930 C   0  0  0  0  0  0  0  0  0  0  0  0
   30.7600   10.6760   21.8120 H   0  0  0  0  0  0  0  0  0  0  0  0
   28.0330   11.8330   20.4260 C   0  0  0  0  0  0  0  0  0  0  0  0
   27.6900   12.6990   19.8800 H   0  0  0  0  0  0  0  0  0  0  0  0
  1  2  1  0  0  0  0
  1 12  1  0  0  0  0
  1 13  1  0  0  0  0
  1 16  1  0  0  0  0
  2  3  1  0  0  0  0
  2  7  1  0  0  0  0
  2  8  1  0  0  0  0
  3  4  1  0  0  0  0
  3  5  1  0  0  0  0
  3  6  1  0  0  0  0
  8  9  1  0  0  0  0
  8 10  1  0  0  0  0
  8 11  1  0  0  0  0
 14 16  1  0  0  0  0
 14 19  1  0  0  0  0
 14 20  1  0  0  0  0
 15 32  2  0  0  0  0
 16 17  1  0  0  0  0
 16 18  1  0  0  0  0
 19 25  2  0  0  0  0
 20 21  1  0  0  0  0
 20 23  2  0  0  0  0
 22 32  1  0  0  0  0
 22 35  1  0  0  0  0
 22 36  1  0  0  0  0
 23 25  1  0  0  0  0
 23 30  1  0  0  0  0
 24 30  1  0  0  0  0
 24 35  2  0  0  0  0
 25 26  1  0  0  0  0
 27 28  1  0  0  0  0
 27 29  1  0  0  0  0
 27 35  1  0  0  0  0
 30 32  1  0  0  0  0
 30 40  1  0  0  0  0
 31 51  2  0  0  0  0
 31 53  1  0  0  0  0
 33 34  1  0  0  0  0
 33 53  2  0  0  0  0
 33 55  1  0  0  0  0
 36 37  1  0  0  0  0
 36 38  1  0  0  0  0
 36 39  1  0  0  0  0
 40 41  1  0  0  0  0
 40 48  2  0  0  0  0
 41 42  1  0  0  0  0
 41 43  2  0  0  0  0
 43 44  1  0  0  0  0
 43 45  1  0  0  0  0
 45 46  1  0  0  0  0
 45 47  2  0  0  0  0
 47 48  1  0  0  0  0
 47 50  1  0  0  0  0
 48 49  1  0  0  0  0
 50 51  1  0  0  0  0
 50 55  2  0  0  0  0
 51 52  1  0  0  0  0
 53 54  1  0  0  0  0
 55 56  1  0  0  0  0
M  END
>  <PARENT_CMPD_ID>
CHEMBL1824341

>  <STANDARD_TYPE>
IC50

>  <RELATION>
=

>  <STANDARD_VALUE>
16

>  <STANDARD_UNITS>
nM

>  <COMPOUND_KEY>
44

>  <PUBMED_ID>
21835615

>  <JOURNAL>
Bioorg.Med.Chem.Lett.

>  <YEAR>
2011

>  <VOLUME>
21

>  <FIRST_PAGE>
5164

>  <Company>
Pfizer

>  <idx>
464

>  <Model>
Valid

>  <target>
7.7958798

>  <des_pred_mlr>
6.3608799

>  <RF_Canvas>
7.2824774

>  <DNN_Canvas>
7.1595273

>  <pred_CoMFA>
8.5899

>  <pred_COMSIA>
7.4661999

>  <pred_abm5>
7.6862206

>  <pred_ff8>
6.3241992

>  <pred_gau6>
7.6498704

>  <CID>
BACE_464

>  <active>
1

>  <des_class_bayes>
0

>  <maacs_class_bayes>
1

>  <radial_class_bayes>
0

>  <dend_class_bayes>
1

>  <molprint_class_bayes>
1

>  <RF_canvas>
1

>  <DNN_canvas>
1

$$$$
22468684_39
  MOE2015           3D

 90 94  0  0  1  0  0  0  0  0999 V2000
   20.7560   13.9060   29.6230 C   0  0  0  0  0  0  0  0  0  0  0  0
   20.1200   13.0260   30.6960 C   0  0  0  0  0  0  0  0  0  0  0  0
   19.1140   12.5520   29.6500 C   0  0  0  0  0  0  0  0  0  0  0  0
   20.0910   13.0180   28.5450 C   0  0  0  0  0  0  0  0  0  0  0  0
   21.0250   11.9760   27.9550 C   0  0  0  0  0  0  0  0  0  0  0  0
   19.4990   13.7820   27.4820 O   0  0  0  0  0  0  0  0  0  0  0  0
   18.8640   13.0740   26.4980 C   0  0  0  0  0  0  0  0  0  0  0  0
   17.9680   13.7880   25.7990 N   0  0  0  0  0  0  0  0  0  0  0  0
   17.3280   13.1510   24.8060 C   0  0  0  0  0  0  0  0  0  0  0  0
   17.5150   11.8150   24.4870 C   0  0  0  0  0  0  0  0  0  0  0  0
   16.7190   11.1690   23.3940 C   0  0  0  0  0  0  0  0  0  0  0  0
   15.3880   10.5170   23.8210 C   0  0  0  0  0  0  0  0  0  0  0  0
   14.4850   11.4940   24.5750 C   0  0  0  0  0  0  0  0  0  0  0  0
   15.6290    9.2840   24.6930 C   0  0  0  0  0  0  0  0  0  0  0  0
   14.6530   10.0730   22.5530 C   0  0  0  0  0  0  0  0  0  0  0  0
   18.4530   11.1090   25.2310 C   0  0  0  0  0  0  0  0  0  0  0  0
   19.1730   11.7460   26.2420 C   0  0  0  0  0  0  0  0  0  0  0  0
   20.2280   11.0380   27.0410 C   0  0  3  0  0  0  0  0  0  0  0  0
   21.2070   10.2400   26.2100 N   0  3  0  0  0  0  0  0  0  0  0  0
   21.9330   11.0000   25.1300 C   0  0  0  0  0  0  0  0  0  0  0  0
   22.3690   10.0180   24.0470 C   0  0  3  0  0  0  0  0  0  0  0  0
   21.2230    9.2470   23.6630 O   0  0  0  0  0  0  0  0  0  0  0  0
   22.9910   10.7290   22.8240 C   0  0  3  0  0  0  0  0  0  0  0  0
   24.0040   11.6960   23.2270 N   0  0  0  0  0  0  0  0  0  0  0  0
   23.7430   13.0480   23.2910 C   0  0  0  0  0  0  0  0  0  0  0  0
   22.6390   13.5320   23.0600 O   0  0  0  0  0  0  0  0  0  0  0  0
   24.9130   13.9040   23.7620 C   0  0  3  0  0  0  0  0  0  0  0  0
   24.8560   14.0260   25.2740 C   0  0  0  0  0  0  0  0  0  0  0  0
   26.1590   13.3110   23.4210 O   0  0  0  0  0  0  0  0  0  0  0  0
   26.6710   13.7450   22.1660 C   0  0  0  0  0  0  0  0  0  0  0  0
   23.5310    9.6850   21.8250 C   0  0  0  0  0  0  0  0  0  0  0  0
   24.3510   10.2800   20.7180 C   0  0  0  0  0  0  0  0  0  0  0  0
   25.7400   10.3130   20.8490 C   0  0  0  0  0  0  0  0  0  0  0  0
   23.7650   10.8470   19.5950 C   0  0  0  0  0  0  0  0  0  0  0  0
   24.5590   11.4380   18.6230 C   0  0  0  0  0  0  0  0  0  0  0  0
   25.9410   11.4780   18.7730 C   0  0  0  0  0  0  0  0  0  0  0  0
   26.5530   10.9120   19.8900 C   0  0  0  0  0  0  0  0  0  0  0  0
   28.0040   11.0270   20.0760 C   0  0  0  0  0  0  0  0  0  0  0  0
   28.7280   12.0320   19.6290 N   0  0  0  0  0  0  0  0  0  0  0  0
   30.0380   11.8820   20.0220 C   0  0  0  0  0  0  0  0  0  0  0  0
   30.3130   10.7600   20.7650 C   0  0  0  0  0  0  0  0  0  0  0  0
   28.8910    9.8480   20.9670 S   0  0  0  0  0  0  0  0  0  0  0  0
   21.8500   13.9280   29.6310 H   0  0  0  0  0  0  0  0  0  0  0  0
   20.3920   14.9400   29.6330 H   0  0  0  0  0  0  0  0  0  0  0  0
   19.6980   13.5560   31.5540 H   0  0  0  0  0  0  0  0  0  0  0  0
   20.7810   12.2320   31.0620 H   0  0  0  0  0  0  0  0  0  0  0  0
   18.1680   13.1060   29.6700 H   0  0  0  0  0  0  0  0  0  0  0  0
   18.8850   11.4830   29.6850 H   0  0  0  0  0  0  0  0  0  0  0  0
   21.5300   11.3920   28.7340 H   0  0  0  0  0  0  0  0  0  0  0  0
   21.8140   12.4960   27.3980 H   0  0  0  0  0  0  0  0  0  0  0  0
   16.6160   13.7670   24.2620 H   0  0  0  0  0  0  0  0  0  0  0  0
   17.3540   10.4250   22.8920 H   0  0  0  0  0  0  0  0  0  0  0  0
   16.5240   11.9290   22.6240 H   0  0  0  0  0  0  0  0  0  0  0  0
   14.9000   11.7710   25.5500 H   0  0  0  0  0  0  0  0  0  0  0  0
   13.5000   11.0520   24.7670 H   0  0  0  0  0  0  0  0  0  0  0  0
   14.3240   12.4130   24.0010 H   0  0  0  0  0  0  0  0  0  0  0  0
   16.0670    9.5470   25.6610 H   0  0  0  0  0  0  0  0  0  0  0  0
   16.3030    8.5730   24.2010 H   0  0  0  0  0  0  0  0  0  0  0  0
   14.6910    8.7560   24.9010 H   0  0  0  0  0  0  0  0  0  0  0  0
   14.4310   10.9250   21.9000 H   0  0  0  0  0  0  0  0  0  0  0  0
   13.7010    9.5840   22.7900 H   0  0  0  0  0  0  0  0  0  0  0  0
   15.2530    9.3600   21.9750 H   0  0  0  0  0  0  0  0  0  0  0  0
   18.6150   10.0570   25.0080 H   0  0  0  0  0  0  0  0  0  0  0  0
   19.7200   10.2930   27.6650 H   0  0  0  0  0  0  0  0  0  0  0  0
   20.7010    9.4860   25.7120 H   0  0  0  0  0  0  0  0  0  0  0  0
   21.8790    9.7530   26.8160 H   0  0  0  0  0  0  0  0  0  0  0  0
   22.7800   11.5000   25.6070 H   0  0  0  0  0  0  0  0  0  0  0  0
   21.2450   11.7390   24.7130 H   0  0  0  0  0  0  0  0  0  0  0  0
   23.0950    9.3200   24.4820 H   0  0  0  0  0  0  0  0  0  0  0  0
   20.8030    9.6570   22.8830 H   0  0  0  0  0  0  0  0  0  0  0  0
   22.1940   11.2780   22.3030 H   0  0  0  0  0  0  0  0  0  0  0  0
   24.9560   11.4070   23.4490 H   0  0  0  0  0  0  0  0  0  0  0  0
   24.8050   14.9000   23.3170 H   0  0  0  0  0  0  0  0  0  0  0  0
   24.9790   13.0490   25.7560 H   0  0  0  0  0  0  0  0  0  0  0  0
   23.9030   14.4500   25.6070 H   0  0  0  0  0  0  0  0  0  0  0  0
   25.6690   14.6630   25.6380 H   0  0  0  0  0  0  0  0  0  0  0  0
   27.4410   13.0240   21.8880 H   0  0  0  0  0  0  0  0  0  0  0  0
   27.3270   15.1080   22.2680 C   0  0  0  0  0  0  0  0  0  0  0  0
   27.8180   15.3690   21.3260 H   0  0  0  0  0  0  0  0  0  0  0  0
   28.0730   15.1160   23.0690 H   0  0  0  0  0  0  0  0  0  0  0  0
   26.6000   15.8910   22.5020 H   0  0  0  0  0  0  0  0  0  0  0  0
   25.8920   13.7270   21.3960 H   0  0  0  0  0  0  0  0  0  0  0  0
   22.7010    9.1140   21.3910 H   0  0  0  0  0  0  0  0  0  0  0  0
   24.1430    8.9450   22.3590 H   0  0  0  0  0  0  0  0  0  0  0  0
   26.1820    9.8870   21.7480 H   0  0  0  0  0  0  0  0  0  0  0  0
   22.6840   10.8440   19.4720 H   0  0  0  0  0  0  0  0  0  0  0  0
   24.0980   11.8880   17.7470 H   0  0  0  0  0  0  0  0  0  0  0  0
   26.5440   11.9680   18.0100 H   0  0  0  0  0  0  0  0  0  0  0  0
   30.7640   12.6330   19.7370 H   0  0  0  0  0  0  0  0  0  0  0  0
   31.2610   10.4420   21.1760 H   0  0  0  0  0  0  0  0  0  0  0  0
  1  2  1  0  0  0  0
  1  4  1  0  0  0  0
  1 43  1  0  0  0  0
  1 44  1  0  0  0  0
  2  3  1  0  0  0  0
  2 45  1  0  0  0  0
  2 46  1  0  0  0  0
  3  4  1  0  0  0  0
  3 47  1  0  0  0  0
  3 48  1  0  0  0  0
  4  5  1  0  0  0  0
  4  6  1  0  0  0  0
  5 18  1  0  0  0  0
  5 49  1  0  0  0  0
  5 50  1  0  0  0  0
  6  7  1  0  0  0  0
  7  8  1  0  0  0  0
  7 17  2  0  0  0  0
  8  9  2  0  0  0  0
  9 10  1  0  0  0  0
  9 51  1  0  0  0  0
 10 11  1  0  0  0  0
 10 16  2  0  0  0  0
 11 12  1  0  0  0  0
 11 52  1  0  0  0  0
 11 53  1  0  0  0  0
 12 13  1  0  0  0  0
 12 14  1  0  0  0  0
 12 15  1  0  0  0  0
 13 54  1  0  0  0  0
 13 55  1  0  0  0  0
 13 56  1  0  0  0  0
 14 57  1  0  0  0  0
 14 58  1  0  0  0  0
 14 59  1  0  0  0  0
 15 60  1  0  0  0  0
 15 61  1  0  0  0  0
 15 62  1  0  0  0  0
 16 17  1  0  0  0  0
 16 63  1  0  0  0  0
 17 18  1  0  0  0  0
 18 19  1  0  0  0  0
 18 64  1  0  0  0  0
 19 20  1  0  0  0  0
 19 65  1  0  0  0  0
 19 66  1  0  0  0  0
 20 21  1  0  0  0  0
 20 67  1  0  0  0  0
 20 68  1  0  0  0  0
 21 22  1  0  0  0  0
 21 23  1  0  0  0  0
 21 69  1  0  0  0  0
 22 70  1  0  0  0  0
 23 24  1  0  0  0  0
 23 31  1  0  0  0  0
 23 71  1  0  0  0  0
 24 25  1  0  0  0  0
 24 72  1  0  0  0  0
 25 26  2  0  0  0  0
 25 27  1  0  0  0  0
 27 28  1  0  0  0  0
 27 29  1  0  0  0  0
 27 73  1  0  0  0  0
 28 74  1  0  0  0  0
 28 75  1  0  0  0  0
 28 76  1  0  0  0  0
 29 30  1  0  0  0  0
 30 77  1  0  0  0  0
 30 78  1  0  0  0  0
 30 82  1  0  0  0  0
 31 32  1  0  0  0  0
 31 83  1  0  0  0  0
 31 84  1  0  0  0  0
 32 33  1  0  0  0  0
 32 34  2  0  0  0  0
 33 37  2  0  0  0  0
 33 85  1  0  0  0  0
 34 35  1  0  0  0  0
 34 86  1  0  0  0  0
 35 36  2  0  0  0  0
 35 87  1  0  0  0  0
 36 37  1  0  0  0  0
 36 88  1  0  0  0  0
 37 38  1  0  0  0  0
 38 39  2  0  0  0  0
 38 42  1  0  0  0  0
 39 40  1  0  0  0  0
 40 41  2  0  0  0  0
 40 89  1  0  0  0  0
 41 42  1  0  0  0  0
 41 90  1  0  0  0  0
 78 79  1  0  0  0  0
 78 80  1  0  0  0  0
 78 81  1  0  0  0  0
M  CHG  1  19   1
M  END
>  <PARENT_CMPD_ID>
22468684_39

>  <STANDARD_TYPE>
IC50

>  <RELATION>
=

>  <STANDARD_VALUE>
16

>  <STANDARD_UNITS>
nM

>  <COMPOUND_KEY>
39

>  <PUBMED_ID>
22468684

>  <JOURNAL>
J.Med.Chem.

>  <YEAR>
2012

>  <VOLUME>
55

>  <FIRST_PAGE>
9025

>  <Company>
Amgen

>  <idx>
465

>  <Model>
Valid

>  <target>
7.7958798

>  <des_pred_mlr>
8.0516996

>  <RF_Canvas>
8.1779518

>  <DNN_Canvas>
8.172945

>  <pred_CoMFA>
8.9013004

>  <pred_COMSIA>
8.6316004

>  <pred_abm5>
9.0874634

>  <pred_ff8>
8.2494993

>  <pred_gau6>
8.938097

>  <CID>
BACE_465

>  <active>
1

>  <des_class_bayes>
1

>  <maacs_class_bayes>
1

>  <radial_class_bayes>
1

>  <dend_class_bayes>
1

>  <molprint_class_bayes>
1

>  <RF_canvas>
1

>  <DNN_canvas>
1

$$$$
22698785_25
  MOE2015           3D

 83 85  0  0  1  0  0  0  0  0999 V2000
   28.1660   16.7810   28.1880 O   0  0  0  0  0  0  0  0  0  0  0  0
   28.4760   16.0990   26.9510 S   0  0  0  0  0  0  0  0  0  0  0  0
   29.2630   14.8890   27.0040 O   0  0  0  0  0  0  0  0  0  0  0  0
   29.2990   17.2770   25.9000 C   0  0  0  0  0  0  0  0  0  0  0  0
   30.2600   17.5170   26.3620 H   0  0  0  0  0  0  0  0  0  0  0  0
   28.6960   18.1840   25.8300 H   0  0  0  0  0  0  0  0  0  0  0  0
   29.4680   16.8470   24.9140 H   0  0  0  0  0  0  0  0  0  0  0  0
   27.0230   15.8440   26.1140 N   0  0  0  0  0  0  0  0  0  0  0  0
   26.0480   16.9500   26.0970 C   0  0  0  0  0  0  0  0  0  0  0  0
   26.4160   17.8340   26.6260 H   0  0  0  0  0  0  0  0  0  0  0  0
   25.1210   16.6440   26.5910 H   0  0  0  0  0  0  0  0  0  0  0  0
   25.8290   17.2620   25.0700 H   0  0  0  0  0  0  0  0  0  0  0  0
   26.8840   14.8170   25.1180 C   0  0  0  0  0  0  0  0  0  0  0  0
   27.9620   14.3340   24.3780 C   0  0  0  0  0  0  0  0  0  0  0  0
   28.9780   14.6710   24.5550 H   0  0  0  0  0  0  0  0  0  0  0  0
   27.7650   13.3930   23.3780 C   0  0  0  0  0  0  0  0  0  0  0  0
   25.6070   14.3120   24.8610 C   0  0  0  0  0  0  0  0  0  0  0  0
   24.7510   14.6470   25.4420 H   0  0  0  0  0  0  0  0  0  0  0  0
   25.4220   13.3450   23.8850 C   0  0  0  0  0  0  0  0  0  0  0  0
   26.4970   12.9050   23.1270 C   0  0  0  0  0  0  0  0  0  0  0  0
   26.3510   12.1540   22.3580 H   0  0  0  0  0  0  0  0  0  0  0  0
   24.0900   12.7450   23.6530 C   0  0  0  0  0  0  0  0  0  0  0  0
   23.0680   13.4130   23.6990 O   0  0  0  0  0  0  0  0  0  0  0  0
   24.1400   11.3980   23.3860 N   0  0  0  0  0  0  0  0  0  0  0  0
   25.0220   10.9080   23.4970 H   0  0  0  0  0  0  0  0  0  0  0  0
   23.0210   10.5950   22.9140 C   0  0  3  0  0  0  0  0  0  0  0  0
   22.2900   11.2650   22.4460 H   0  0  0  0  0  0  0  0  0  0  0  0
   22.3840    9.8350   24.0900 C   0  0  3  0  0  0  0  0  0  0  0  0
   23.1290    9.1780   24.5570 H   0  0  0  0  0  0  0  0  0  0  0  0
   21.8500   10.8060   25.1470 C   0  0  0  0  0  0  0  0  0  0  0  0
   21.1000   11.4650   24.7010 H   0  0  0  0  0  0  0  0  0  0  0  0
   22.6320   11.3950   25.6330 H   0  0  0  0  0  0  0  0  0  0  0  0
   21.1850   10.0120   26.2290 N   0  3  0  0  0  0  0  0  0  0  0  0
   21.8880    9.5540   26.8220 H   0  0  0  0  0  0  0  0  0  0  0  0
   20.6920    9.2420   25.7470 H   0  0  0  0  0  0  0  0  0  0  0  0
   20.2190   10.7720   27.0750 C   0  0  0  0  0  0  0  0  0  0  0  0
   20.7960   11.5610   27.5720 H   0  0  0  0  0  0  0  0  0  0  0  0
   19.8710   10.0770   27.8470 H   0  0  0  0  0  0  0  0  0  0  0  0
   19.0460   11.3220   26.3220 C   0  0  0  0  0  0  0  0  0  0  0  0
   18.1780   10.4680   25.6390 C   0  0  0  0  0  0  0  0  0  0  0  0
   18.3330    9.3900   25.6840 H   0  0  0  0  0  0  0  0  0  0  0  0
   17.1030   10.9570   24.8940 C   0  0  0  0  0  0  0  0  0  0  0  0
   16.2190    9.9680   24.1710 C   0  0  0  0  0  0  0  0  0  0  0  0
   16.8770    9.2120   23.7210 H   0  0  0  0  0  0  0  0  0  0  0  0
   15.2960    9.2640   25.1550 C   0  0  0  0  0  0  0  0  0  0  0  0
   14.6250    9.9740   25.6530 H   0  0  0  0  0  0  0  0  0  0  0  0
   15.8590    8.7410   25.9360 H   0  0  0  0  0  0  0  0  0  0  0  0
   16.8940   12.3330   24.8680 C   0  0  0  0  0  0  0  0  0  0  0  0
   14.6760    8.5190   24.6450 H   0  0  0  0  0  0  0  0  0  0  0  0
   16.0620   12.7670   24.3180 H   0  0  0  0  0  0  0  0  0  0  0  0
   17.7430   13.1940   25.5500 C   0  0  0  0  0  0  0  0  0  0  0  0
   15.4070   10.5570   23.0240 C   0  0  0  0  0  0  0  0  0  0  0  0
   17.5640   14.2660   25.5160 H   0  0  0  0  0  0  0  0  0  0  0  0
   18.8140   12.6930   26.2730 C   0  0  0  0  0  0  0  0  0  0  0  0
   14.6390   11.2540   23.3780 H   0  0  0  0  0  0  0  0  0  0  0  0
   19.4640   13.3920   26.7940 H   0  0  0  0  0  0  0  0  0  0  0  0
   21.3030    9.0000   23.6680 O   0  0  0  0  0  0  0  0  0  0  0  0
   14.8920    9.7620   22.4720 H   0  0  0  0  0  0  0  0  0  0  0  0
   20.7670    9.4790   23.0060 H   0  0  0  0  0  0  0  0  0  0  0  0
   23.5530    9.6280   21.8330 C   0  0  0  0  0  0  0  0  0  0  0  0
   16.0490   11.0870   22.3120 H   0  0  0  0  0  0  0  0  0  0  0  0
   22.7320    9.1920   21.2540 H   0  0  0  0  0  0  0  0  0  0  0  0
   24.1090    8.8130   22.3120 H   0  0  0  0  0  0  0  0  0  0  0  0
   24.4060   10.3660   20.9500 O   0  0  0  0  0  0  0  0  0  0  0  0
   25.5040    9.6020   20.4520 C   0  0  0  0  0  0  0  0  0  0  0  0
   25.1410    8.8500   19.7440 H   0  0  0  0  0  0  0  0  0  0  0  0
   25.9960    9.0950   21.2900 H   0  0  0  0  0  0  0  0  0  0  0  0
   26.4830   10.5650   19.7830 C   0  0  0  0  0  0  0  0  0  0  0  0
   26.3850   11.5580   20.2290 H   0  0  0  0  0  0  0  0  0  0  0  0
   26.1920   10.6920   18.7330 H   0  0  0  0  0  0  0  0  0  0  0  0
   27.9290   10.0900   19.8650 C   0  0  0  0  0  0  0  0  0  0  0  0
   28.0220    9.1880   19.2470 H   0  0  0  0  0  0  0  0  0  0  0  0
   28.1840    9.7930   20.8890 H   0  0  0  0  0  0  0  0  0  0  0  0
   28.9280   11.1360   19.3560 C   0  0  0  0  0  0  0  0  0  0  0  0
   28.4340   11.8320   18.6660 H   0  0  0  0  0  0  0  0  0  0  0  0
   29.7010   10.6200   18.7720 H   0  0  0  0  0  0  0  0  0  0  0  0
   29.6400   11.9140   20.4620 C   0  0  0  0  0  0  0  0  0  0  0  0
   30.2450   11.2370   21.0760 H   0  0  0  0  0  0  0  0  0  0  0  0
   30.3140   12.6560   20.0210 H   0  0  0  0  0  0  0  0  0  0  0  0
   28.7080   12.6280   21.3010 N   0  0  0  0  0  0  0  0  0  0  0  0
   27.8850   13.0240   20.8610 H   0  0  0  0  0  0  0  0  0  0  0  0
   28.9140   12.8230   22.6450 C   0  0  0  0  0  0  0  0  0  0  0  0
   29.9140   12.4960   23.2670 O   0  0  0  0  0  0  0  0  0  0  0  0
  1  2  2  0  0  0  0
  2  3  2  0  0  0  0
  2  4  1  0  0  0  0
  2  8  1  0  0  0  0
  4  5  1  0  0  0  0
  4  6  1  0  0  0  0
  4  7  1  0  0  0  0
  8  9  1  0  0  0  0
  8 13  1  0  0  0  0
  9 10  1  0  0  0  0
  9 11  1  0  0  0  0
  9 12  1  0  0  0  0
 13 14  2  0  0  0  0
 13 17  1  0  0  0  0
 14 15  1  0  0  0  0
 14 16  1  0  0  0  0
 16 20  2  0  0  0  0
 16 82  1  0  0  0  0
 17 18  1  0  0  0  0
 17 19  2  0  0  0  0
 19 20  1  0  0  0  0
 19 22  1  0  0  0  0
 20 21  1  0  0  0  0
 22 23  2  0  0  0  0
 22 24  1  0  0  0  0
 24 25  1  0  0  0  0
 24 26  1  0  0  0  0
 26 27  1  0  0  0  0
 26 28  1  0  0  0  0
 26 60  1  0  0  0  0
 28 29  1  0  0  0  0
 28 30  1  0  0  0  0
 28 57  1  0  0  0  0
 30 31  1  0  0  0  0
 30 32  1  0  0  0  0
 30 33  1  0  0  0  0
 33 34  1  0  0  0  0
 33 35  1  0  0  0  0
 33 36  1  0  0  0  0
 36 37  1  0  0  0  0
 36 38  1  0  0  0  0
 36 39  1  0  0  0  0
 39 40  1  0  0  0  0
 39 54  2  0  0  0  0
 40 41  1  0  0  0  0
 40 42  2  0  0  0  0
 42 43  1  0  0  0  0
 42 48  1  0  0  0  0
 43 44  1  0  0  0  0
 43 45  1  0  0  0  0
 43 52  1  0  0  0  0
 45 46  1  0  0  0  0
 45 47  1  0  0  0  0
 45 49  1  0  0  0  0
 48 50  1  0  0  0  0
 48 51  2  0  0  0  0
 51 53  1  0  0  0  0
 51 54  1  0  0  0  0
 52 55  1  0  0  0  0
 52 58  1  0  0  0  0
 52 61  1  0  0  0  0
 54 56  1  0  0  0  0
 57 59  1  0  0  0  0
 60 62  1  0  0  0  0
 60 63  1  0  0  0  0
 60 64  1  0  0  0  0
 64 65  1  0  0  0  0
 65 66  1  0  0  0  0
 65 67  1  0  0  0  0
 65 68  1  0  0  0  0
 68 69  1  0  0  0  0
 68 70  1  0  0  0  0
 68 71  1  0  0  0  0
 71 72  1  0  0  0  0
 71 73  1  0  0  0  0
 71 74  1  0  0  0  0
 74 75  1  0  0  0  0
 74 76  1  0  0  0  0
 74 77  1  0  0  0  0
 77 78  1  0  0  0  0
 77 79  1  0  0  0  0
 77 80  1  0  0  0  0
 80 81  1  0  0  0  0
 80 82  1  0  0  0  0
 82 83  2  0  0  0  0
M  CHG  1  33   1
M  END
>  <PARENT_CMPD_ID>
22698785_25

>  <STANDARD_TYPE>
IC50

>  <RELATION>
=

>  <STANDARD_VALUE>
16

>  <STANDARD_UNITS>
nM

>  <COMPOUND_KEY>
25

>  <PUBMED_ID>
22698785

>  <JOURNAL>
Bioorg. Med. Chem.

>  <YEAR>
2012

>  <VOLUME>
20

>  <FIRST_PAGE>
4377

>  <Company>
Medivir

>  <idx>
466

>  <Model>
Valid

>  <target>
7.7958798

>  <des_pred_mlr>
6.8424201

>  <RF_Canvas>
7.1504035

>  <DNN_Canvas>
6.6363435

>  <pred_CoMFA>
6.5812998

>  <pred_COMSIA>
7.1036

>  <pred_abm5>
6.5840964

>  <pred_ff8>
8.7270231

>  <pred_gau6>
6.5811286

>  <CID>
BACE_466

>  <active>
1

>  <des_class_bayes>
1

>  <maacs_class_bayes>
1

>  <radial_class_bayes>
0

>  <dend_class_bayes>
1

>  <molprint_class_bayes>
1

>  <RF_canvas>
1

>  <DNN_canvas>
1

$$$$
22928914_10a
  MOE2015           3D

 48 52  0  0  1  0  0  0  0  0999 V2000
   28.2110   11.6570   19.6280 C   0  0  0  0  0  0  0  0  0  0  0  0
   27.8690   12.3540   18.8770 H   0  0  0  0  0  0  0  0  0  0  0  0
   29.4900   11.6390   19.9820 N   0  0  0  0  0  0  0  0  0  0  0  0
   29.9240   10.8010   20.9200 C   0  0  0  0  0  0  0  0  0  0  0  0
   30.9690   10.8050   21.1930 H   0  0  0  0  0  0  0  0  0  0  0  0
   29.0980    9.9640   21.5240 N   0  0  0  0  0  0  0  0  0  0  0  0
   27.8140    9.9140   21.2000 C   0  0  0  0  0  0  0  0  0  0  0  0
   27.1600    9.2080   21.6890 H   0  0  0  0  0  0  0  0  0  0  0  0
   27.3080   10.7760   20.2250 C   0  0  0  0  0  0  0  0  0  0  0  0
   25.9450   10.7900   19.8760 C   0  0  0  0  0  0  0  0  0  0  0  0
   24.9740   10.7650   20.8850 C   0  0  0  0  0  0  0  0  0  0  0  0
   25.2820   10.7210   21.9190 H   0  0  0  0  0  0  0  0  0  0  0  0
   23.6090   10.7960   20.5730 C   0  0  0  0  0  0  0  0  0  0  0  0
   25.5440   10.8610   18.5390 C   0  0  0  0  0  0  0  0  0  0  0  0
   26.2840   10.8970   17.7530 H   0  0  0  0  0  0  0  0  0  0  0  0
   24.1730   10.8850   18.2190 C   0  0  0  0  0  0  0  0  0  0  0  0
   23.8650   10.9220   17.1840 H   0  0  0  0  0  0  0  0  0  0  0  0
   23.2080   10.8610   19.2280 C   0  0  0  0  0  0  0  0  0  0  0  0
   21.8920   10.9080   18.8440 O   0  0  0  0  0  0  0  0  0  0  0  0
   20.8950   10.7860   19.7500 C   0  0  0  0  0  0  0  0  0  0  0  0
   19.6090   10.7540   19.2370 C   0  0  0  0  0  0  0  0  0  0  0  0
   19.4530   10.8200   18.1700 H   0  0  0  0  0  0  0  0  0  0  0  0
   18.5160   10.6370   20.0920 C   0  0  0  0  0  0  0  0  0  0  0  0
   17.5150   10.6030   19.6890 H   0  0  0  0  0  0  0  0  0  0  0  0
   18.7180   10.5640   21.4760 C   0  0  0  0  0  0  0  0  0  0  0  0
   17.5960   10.4210   22.2410 C   0  0  0  0  0  0  0  0  0  0  0  0
   16.7780   10.9020   21.7040 H   0  0  0  0  0  0  0  0  0  0  0  0
   17.3980    9.3520   22.3230 H   0  0  0  0  0  0  0  0  0  0  0  0
   17.5980   10.9360   23.5290 C   0  0  0  0  0  0  0  0  0  0  0  0
   17.9240   11.9760   23.5420 H   0  0  0  0  0  0  0  0  0  0  0  0
   18.2310   10.3480   24.1930 H   0  0  0  0  0  0  0  0  0  0  0  0
   16.1110   10.8070   23.9080 C   0  0  0  0  0  0  0  0  0  0  0  0
   15.5150   10.9400   23.0050 H   0  0  0  0  0  0  0  0  0  0  0  0
   15.9100    9.8280   24.3440 H   0  0  0  0  0  0  0  0  0  0  0  0
   15.8540   11.5660   24.6470 H   0  0  0  0  0  0  0  0  0  0  0  0
   20.0200   10.5910   22.0000 C   0  0  0  0  0  0  0  0  0  0  0  0
   20.1760   10.5190   23.0660 H   0  0  0  0  0  0  0  0  0  0  0  0
   21.1190   10.7120   21.1360 C   0  0  0  0  0  0  0  0  0  0  0  0
   22.5540   10.7540   21.7070 C   0  0  3  0  0  0  0  0  0  0  0  0
   22.7870   11.9290   22.6730 C   0  0  0  0  0  0  0  0  0  0  0  0
   21.8730   12.5080   22.8040 H   0  0  0  0  0  0  0  0  0  0  0  0
   23.5800   12.5800   22.3040 H   0  0  0  0  0  0  0  0  0  0  0  0
   23.1840   11.2900   23.9370 O   0  0  0  0  0  0  0  0  0  0  0  0
   22.9900    9.9410   23.8260 C   0  0  0  0  0  0  0  0  0  0  0  0
   23.1100    9.1000   24.8630 N   0  0  0  0  0  0  0  0  0  0  0  0
   22.9530    8.1110   24.7320 H   0  0  0  0  0  0  0  0  0  0  0  0
   23.3570    9.4550   25.7750 H   0  0  0  0  0  0  0  0  0  0  0  0
   22.6680    9.5470   22.5970 N   0  0  0  0  0  0  0  0  0  0  0  0
  1  2  1  0  0  0  0
  1  3  1  0  0  0  0
  1  9  2  0  0  0  0
  3  4  2  0  0  0  0
  4  5  1  0  0  0  0
  4  6  1  0  0  0  0
  6  7  2  0  0  0  0
  7  8  1  0  0  0  0
  7  9  1  0  0  0  0
  9 10  1  0  0  0  0
 10 11  2  0  0  0  0
 10 14  1  0  0  0  0
 11 12  1  0  0  0  0
 11 13  1  0  0  0  0
 13 18  2  0  0  0  0
 13 39  1  0  0  0  0
 14 15  1  0  0  0  0
 14 16  2  0  0  0  0
 16 17  1  0  0  0  0
 16 18  1  0  0  0  0
 18 19  1  0  0  0  0
 19 20  1  0  0  0  0
 20 21  1  0  0  0  0
 20 38  2  0  0  0  0
 21 22  1  0  0  0  0
 21 23  2  0  0  0  0
 23 24  1  0  0  0  0
 23 25  1  0  0  0  0
 25 26  1  0  0  0  0
 25 36  2  0  0  0  0
 26 27  1  0  0  0  0
 26 28  1  0  0  0  0
 26 29  1  0  0  0  0
 29 30  1  0  0  0  0
 29 31  1  0  0  0  0
 29 32  1  0  0  0  0
 32 33  1  0  0  0  0
 32 34  1  0  0  0  0
 32 35  1  0  0  0  0
 36 37  1  0  0  0  0
 36 38  1  0  0  0  0
 38 39  1  0  0  0  0
 39 40  1  0  0  0  0
 39 48  1  0  0  0  0
 40 41  1  0  0  0  0
 40 42  1  0  0  0  0
 40 43  1  0  0  0  0
 43 44  1  0  0  0  0
 44 45  1  0  0  0  0
 44 48  2  0  0  0  0
 45 46  1  0  0  0  0
 45 47  1  0  0  0  0
M  END
>  <PARENT_CMPD_ID>
22928914_10a

>  <STANDARD_TYPE>
IC50

>  <RELATION>
=

>  <STANDARD_VALUE>
16

>  <STANDARD_UNITS>
nM

>  <COMPOUND_KEY>
10a

>  <PUBMED_ID>
22928914

>  <JOURNAL>
J. Med. Chem.

>  <YEAR>
2012

>  <VOLUME>
55

>  <FIRST_PAGE>
9297

>  <Company>
Amgen

>  <idx>
467

>  <Model>
Valid

>  <target>
7.7958798

>  <des_pred_mlr>
6.6993899

>  <RF_Canvas>
6.6798744

>  <DNN_Canvas>
6.3138509

>  <pred_CoMFA>
6.9847002

>  <pred_COMSIA>
7.6668

>  <pred_abm5>
6.8650174

>  <pred_ff8>
5.6521454

>  <pred_gau6>
7.4965329

>  <CID>
BACE_467

>  <active>
1

>  <des_class_bayes>
0

>  <maacs_class_bayes>
0

>  <radial_class_bayes>
0

>  <dend_class_bayes>
0

>  <molprint_class_bayes>
0

>  <RF_canvas>
0

>  <DNN_canvas>
0

$$$$
CHEMBL541172
  MOE2015           3D

 82 85  0  0  1  0  0  0  0  0999 V2000
   15.6410    9.2250   24.6590 C   0  0  0  0  0  0  0  0  0  0  0  0
   16.0750   10.4290   24.0390 O   0  0  0  0  0  0  0  0  0  0  0  0
   16.8520   11.2160   24.8420 C   0  0  0  0  0  0  0  0  0  0  0  0
   16.5980   12.5810   24.8200 C   0  0  0  0  0  0  0  0  0  0  0  0
   17.3780   13.4460   25.5750 C   0  0  0  0  0  0  0  0  0  0  0  0
   18.4420   12.9550   26.3240 C   0  0  0  0  0  0  0  0  0  0  0  0
   18.7340   11.5900   26.3320 C   0  0  0  0  0  0  0  0  0  0  0  0
   19.9350   11.0670   27.0780 C   0  0  0  0  0  0  0  0  0  0  0  0
   20.8680   10.2880   26.2090 N   0  3  0  0  0  0  0  0  0  0  0  0
   21.5000   11.0870   25.1160 C   0  0  0  0  0  0  0  0  0  0  0  0
   22.2900   10.1340   24.2160 C   0  0  2  0  0  0  0  0  0  0  0  0
   23.4150    9.6720   24.9660 O   0  0  0  0  0  0  0  0  0  0  0  0
   22.7450   10.8990   22.9670 C   0  0  3  0  0  0  0  0  0  0  0  0
   23.3400   10.0000   21.8710 C   0  0  0  0  0  0  0  0  0  0  0  0
   23.8850   10.7780   20.6980 C   0  0  0  0  0  0  0  0  0  0  0  0
   25.2040   10.5890   20.2870 C   0  0  0  0  0  0  0  0  0  0  0  0
   25.7180   11.3320   19.2360 C   0  0  0  0  0  0  0  0  0  0  0  0
   26.9910   11.1590   18.8800 F   0  0  0  0  0  0  0  0  0  0  0  0
   24.9490   12.2630   18.5690 C   0  0  0  0  0  0  0  0  0  0  0  0
   23.6430   12.4440   18.9710 C   0  0  0  0  0  0  0  0  0  0  0  0
   22.8860   13.3460   18.3450 F   0  0  0  0  0  0  0  0  0  0  0  0
   23.1030   11.7110   20.0150 C   0  0  0  0  0  0  0  0  0  0  0  0
   23.7160   11.8910   23.3820 N   0  0  0  0  0  0  0  0  0  0  0  0
   23.4040   13.2230   23.4990 C   0  0  0  0  0  0  0  0  0  0  0  0
   22.2740   13.6770   23.4220 O   0  0  0  0  0  0  0  0  0  0  0  0
   24.5630   14.0840   23.7250 C   0  0  0  0  0  0  0  0  0  0  0  0
   25.7200   13.7770   23.0420 C   0  0  0  0  0  0  0  0  0  0  0  0
   26.8500   14.5330   23.2330 C   0  0  0  0  0  0  0  0  0  0  0  0
   26.8400   15.6090   24.1150 C   0  0  0  0  0  0  0  0  0  0  0  0
   25.6490   15.9490   24.7610 C   0  0  0  0  0  0  0  0  0  0  0  0
   24.5030   15.1820   24.5640 C   0  0  0  0  0  0  0  0  0  0  0  0
   25.5460   17.0990   25.6860 C   0  0  0  0  0  0  0  0  0  0  0  0
   24.6290   17.1410   26.5020 O   0  0  0  0  0  0  0  0  0  0  0  0
   26.5770   18.1820   25.6050 C   0  0  0  0  0  0  0  0  0  0  0  0
   27.9740   14.1040   22.4740 N   0  0  0  0  0  0  0  0  0  0  0  0
   28.3640   14.9370   21.3970 C   0  0  0  0  0  0  0  0  0  0  0  0
   27.8990   14.5940   20.1370 C   0  0  0  0  0  0  0  0  0  0  0  0
   28.1860   15.4060   19.0540 C   0  0  0  0  0  0  0  0  0  0  0  0
   28.9230   16.5680   19.2350 C   0  0  0  0  0  0  0  0  0  0  0  0
   29.3890   16.9110   20.4950 C   0  0  0  0  0  0  0  0  0  0  0  0
   29.1190   16.0890   21.5780 C   0  0  0  0  0  0  0  0  0  0  0  0
   29.1010   13.1860   23.2920 S   0  0  0  0  0  0  0  0  0  0  0  0
   28.4190   12.0510   23.8880 O   0  0  0  0  0  0  0  0  0  0  0  0
   29.8840   14.0790   24.1140 O   0  0  0  0  0  0  0  0  0  0  0  0
   30.0920   12.5430   21.9470 C   0  0  0  0  0  0  0  0  0  0  0  0
   17.9130   10.7230   25.6000 C   0  0  0  0  0  0  0  0  0  0  0  0
   14.7810    8.8500   24.0960 H   0  0  0  0  0  0  0  0  0  0  0  0
   15.3190    9.3880   25.6940 H   0  0  0  0  0  0  0  0  0  0  0  0
   16.4260    8.4630   24.6140 H   0  0  0  0  0  0  0  0  0  0  0  0
   15.7820   12.9710   24.2170 H   0  0  0  0  0  0  0  0  0  0  0  0
   17.1650   14.5120   25.5650 H   0  0  0  0  0  0  0  0  0  0  0  0
   19.0510   13.6600   26.8870 H   0  0  0  0  0  0  0  0  0  0  0  0
   19.6120   10.3900   27.8750 H   0  0  0  0  0  0  0  0  0  0  0  0
   20.5230   11.8740   27.5310 H   0  0  0  0  0  0  0  0  0  0  0  0
   20.3810    9.4780   25.8140 H   0  0  0  0  0  0  0  0  0  0  0  0
   21.6310    9.8940   26.7800 H   0  0  0  0  0  0  0  0  0  0  0  0
   20.7010   11.5790   24.5550 H   0  0  0  0  0  0  0  0  0  0  0  0
   22.1350   11.8250   25.6160 H   0  0  0  0  0  0  0  0  0  0  0  0
   21.6750    9.2710   23.9340 H   0  0  0  0  0  0  0  0  0  0  0  0
   23.8940    9.0050   24.4420 H   0  0  0  0  0  0  0  0  0  0  0  0
   21.8710   11.4100   22.5440 H   0  0  0  0  0  0  0  0  0  0  0  0
   24.1410    9.3830   22.2950 H   0  0  0  0  0  0  0  0  0  0  0  0
   22.5750    9.3040   21.5040 H   0  0  0  0  0  0  0  0  0  0  0  0
   25.8530    9.8720   20.7820 H   0  0  0  0  0  0  0  0  0  0  0  0
   25.3620   12.8390   17.7490 H   0  0  0  0  0  0  0  0  0  0  0  0
   22.0690   11.8940   20.2920 H   0  0  0  0  0  0  0  0  0  0  0  0
   24.6490   11.5630   23.6110 H   0  0  0  0  0  0  0  0  0  0  0  0
   25.7550   12.9580   22.3290 H   0  0  0  0  0  0  0  0  0  0  0  0
   27.7530   16.1700   24.2830 H   0  0  0  0  0  0  0  0  0  0  0  0
   23.5720   15.4280   25.0710 H   0  0  0  0  0  0  0  0  0  0  0  0
   27.4870   17.8710   26.1250 H   0  0  0  0  0  0  0  0  0  0  0  0
   26.1870   19.0850   26.0840 H   0  0  0  0  0  0  0  0  0  0  0  0
   26.7970   18.4340   24.5640 H   0  0  0  0  0  0  0  0  0  0  0  0
   27.3060   13.6980   19.9940 H   0  0  0  0  0  0  0  0  0  0  0  0
   27.8220   15.1430   18.0640 H   0  0  0  0  0  0  0  0  0  0  0  0
   29.1360   17.2110   18.3850 H   0  0  0  0  0  0  0  0  0  0  0  0
   29.9670   17.8200   20.6320 H   0  0  0  0  0  0  0  0  0  0  0  0
   29.4920   16.3630   22.5610 H   0  0  0  0  0  0  0  0  0  0  0  0
   29.4430   12.0170   21.2440 H   0  0  0  0  0  0  0  0  0  0  0  0
   30.8060   11.8370   22.3790 H   0  0  0  0  0  0  0  0  0  0  0  0
   30.6380   13.3550   21.4660 H   0  0  0  0  0  0  0  0  0  0  0  0
   18.1160    9.6570   25.5930 H   0  0  0  0  0  0  0  0  0  0  0  0
  1  2  1  0  0  0  0
  1 47  1  0  0  0  0
  1 48  1  0  0  0  0
  1 49  1  0  0  0  0
  2  3  1  0  0  0  0
  3  4  1  0  0  0  0
  3 46  2  0  0  0  0
  4  5  2  0  0  0  0
  4 50  1  0  0  0  0
  5  6  1  0  0  0  0
  5 51  1  0  0  0  0
  6  7  2  0  0  0  0
  6 52  1  0  0  0  0
  7  8  1  0  0  0  0
  7 46  1  0  0  0  0
  8  9  1  0  0  0  0
  8 53  1  0  0  0  0
  8 54  1  0  0  0  0
  9 10  1  0  0  0  0
  9 55  1  0  0  0  0
  9 56  1  0  0  0  0
 10 11  1  0  0  0  0
 10 57  1  0  0  0  0
 10 58  1  0  0  0  0
 11 12  1  0  0  0  0
 11 13  1  0  0  0  0
 11 59  1  0  0  0  0
 12 60  1  0  0  0  0
 13 14  1  0  0  0  0
 13 23  1  0  0  0  0
 13 61  1  0  0  0  0
 14 15  1  0  0  0  0
 14 62  1  0  0  0  0
 14 63  1  0  0  0  0
 15 16  2  0  0  0  0
 15 22  1  0  0  0  0
 16 17  1  0  0  0  0
 16 64  1  0  0  0  0
 17 18  1  0  0  0  0
 17 19  2  0  0  0  0
 19 20  1  0  0  0  0
 19 65  1  0  0  0  0
 20 21  1  0  0  0  0
 20 22  2  0  0  0  0
 22 66  1  0  0  0  0
 23 24  1  0  0  0  0
 23 67  1  0  0  0  0
 24 25  2  0  0  0  0
 24 26  1  0  0  0  0
 26 27  2  0  0  0  0
 26 31  1  0  0  0  0
 27 28  1  0  0  0  0
 27 68  1  0  0  0  0
 28 29  2  0  0  0  0
 28 35  1  0  0  0  0
 29 30  1  0  0  0  0
 29 69  1  0  0  0  0
 30 31  2  0  0  0  0
 30 32  1  0  0  0  0
 31 70  1  0  0  0  0
 32 33  2  0  0  0  0
 32 34  1  0  0  0  0
 34 71  1  0  0  0  0
 34 72  1  0  0  0  0
 34 73  1  0  0  0  0
 35 36  1  0  0  0  0
 35 42  1  0  0  0  0
 36 37  1  0  0  0  0
 36 41  2  0  0  0  0
 37 38  2  0  0  0  0
 37 74  1  0  0  0  0
 38 39  1  0  0  0  0
 38 75  1  0  0  0  0
 39 40  2  0  0  0  0
 39 76  1  0  0  0  0
 40 41  1  0  0  0  0
 40 77  1  0  0  0  0
 41 78  1  0  0  0  0
 42 43  2  0  0  0  0
 42 44  2  0  0  0  0
 42 45  1  0  0  0  0
 45 79  1  0  0  0  0
 45 80  1  0  0  0  0
 45 81  1  0  0  0  0
 46 82  1  0  0  0  0
M  CHG  1   9   1
M  END
>  <PARENT_CMPD_ID>
CHEMBL541172

>  <STANDARD_TYPE>
IC50

>  <RELATION>
=

>  <STANDARD_VALUE>
17

>  <STANDARD_UNITS>
nM

>  <COMPOUND_KEY>
6b

>  <PUBMED_ID>
19375914

>  <JOURNAL>
Bioorg. Med. Chem. Lett.

>  <YEAR>
2009

>  <VOLUME>
19

>  <FIRST_PAGE>
2654

>  <Company>
BMS

>  <idx>
468

>  <Model>
Valid

>  <target>
7.7695513

>  <des_pred_mlr>
7.6345401

>  <RF_Canvas>
7.9201045

>  <DNN_Canvas>
7.6952391

>  <pred_CoMFA>
6.3552999

>  <pred_COMSIA>
7.7402

>  <pred_abm5>
6.754487

>  <pred_ff8>
6.9126301

>  <pred_gau6>
6.7072835

>  <CID>
BACE_468

>  <active>
1

>  <des_class_bayes>
1

>  <maacs_class_bayes>
1

>  <radial_class_bayes>
1

>  <dend_class_bayes>
1

>  <molprint_class_bayes>
1

>  <RF_canvas>
1

>  <DNN_canvas>
1

$$$$
CHEMBL600326
  MOE2015           3D

 82 86  0  0  1  0  0  0  0  0999 V2000
   24.2600   11.5450   23.0330 N   0  0  0  0  0  0  0  0  0  0  0  0
   23.0860   10.7660   22.6410 C   0  0  3  0  0  0  0  0  0  0  0  0
   23.4680    9.7280   21.5610 C   0  0  0  0  0  0  0  0  0  0  0  0
   24.2030   10.3480   20.3980 C   0  0  0  0  0  0  0  0  0  0  0  0
   25.5980   10.2510   20.3200 C   0  0  0  0  0  0  0  0  0  0  0  0
   26.3090   10.9210   19.3290 C   0  0  0  0  0  0  0  0  0  0  0  0
   25.6020   11.6600   18.3830 C   0  0  0  0  0  0  0  0  0  0  0  0
   24.2160   11.7320   18.4270 C   0  0  0  0  0  0  0  0  0  0  0  0
   23.5190   11.0850   19.4370 C   0  0  0  0  0  0  0  0  0  0  0  0
   27.6640   10.9830   19.2000 O   0  0  0  0  0  0  0  0  0  0  0  0
   28.4910   10.1250   19.9780 C   0  0  0  0  0  0  0  0  0  0  0  0
   29.8310   10.8260   20.1900 C   0  0  0  0  0  0  0  0  0  0  0  0
   29.6970   12.1190   20.9880 C   0  0  0  0  0  0  0  0  0  0  0  0
   29.4420   11.8800   22.4690 C   0  0  0  0  0  0  0  0  0  0  0  0
   29.2340   13.1230   23.1320 O   0  0  0  0  0  0  0  0  0  0  0  0
   27.9760   13.6040   23.3320 C   0  0  0  0  0  0  0  0  0  0  0  0
   26.7940   12.9580   23.0180 C   0  0  0  0  0  0  0  0  0  0  0  0
   25.5800   13.5780   23.3190 C   0  0  0  0  0  0  0  0  0  0  0  0
   25.5840   14.8530   23.8600 C   0  0  0  0  0  0  0  0  0  0  0  0
   26.8040   15.4420   24.1290 C   0  0  0  0  0  0  0  0  0  0  0  0
   27.9830   14.8260   23.8940 N   0  0  0  0  0  0  0  0  0  0  0  0
   26.8530   16.8170   24.7060 C   0  0  0  0  0  0  0  0  0  0  0  0
   24.2670   12.9260   23.0510 C   0  0  0  0  0  0  0  0  0  0  0  0
   23.2530   13.5920   22.8820 O   0  0  0  0  0  0  0  0  0  0  0  0
   22.4540   10.0920   23.8800 C   0  0  3  0  0  0  0  0  0  0  0  0
   21.2860    9.3290   23.5490 O   0  0  0  0  0  0  0  0  0  0  0  0
   22.0210   11.1420   24.9090 C   0  0  0  0  0  0  0  0  0  0  0  0
   21.3030   10.4420   26.0210 N   0  3  0  0  0  0  0  0  0  0  0  0
   20.4060   11.3050   26.8310 C   0  0  0  0  0  0  0  0  0  0  0  0
   20.1760   10.8240   28.2450 C   0  0  0  0  0  0  0  0  0  0  0  0
   21.0580   12.0020   28.0010 C   0  0  0  0  0  0  0  0  0  0  0  0
   19.2270   11.9270   26.1100 C   0  0  0  0  0  0  0  0  0  0  0  0
   18.2110   11.1210   25.5750 C   0  0  0  0  0  0  0  0  0  0  0  0
   17.1130   11.6510   24.8930 C   0  0  0  0  0  0  0  0  0  0  0  0
   17.0340   13.0340   24.7450 C   0  0  0  0  0  0  0  0  0  0  0  0
   18.0220   13.8580   25.2590 C   0  0  0  0  0  0  0  0  0  0  0  0
   19.1080   13.3080   25.9260 C   0  0  0  0  0  0  0  0  0  0  0  0
   16.0410   10.7810   24.2810 C   0  0  0  0  0  0  0  0  0  0  0  0
   16.4630   10.3270   22.8910 C   0  0  0  0  0  0  0  0  0  0  0  0
   15.6570    9.5800   25.1380 C   0  0  0  0  0  0  0  0  0  0  0  0
   25.0970   11.0340   23.2880 H   0  0  0  0  0  0  0  0  0  0  0  0
   22.3450   11.4440   22.1960 H   0  0  0  0  0  0  0  0  0  0  0  0
   22.5690    9.2220   21.1850 H   0  0  0  0  0  0  0  0  0  0  0  0
   24.0900    8.9410   22.0060 H   0  0  0  0  0  0  0  0  0  0  0  0
   26.1040    9.6630   21.0760 H   0  0  0  0  0  0  0  0  0  0  0  0
   26.1420   12.1900   17.6020 H   0  0  0  0  0  0  0  0  0  0  0  0
   23.6790   12.3130   17.6820 H   0  0  0  0  0  0  0  0  0  0  0  0
   22.4360   11.1770   19.4750 H   0  0  0  0  0  0  0  0  0  0  0  0
   28.6430    9.1950   19.4200 H   0  0  0  0  0  0  0  0  0  0  0  0
   28.0740    9.8740   20.9540 H   0  0  0  0  0  0  0  0  0  0  0  0
   30.2530   11.0770   19.2090 H   0  0  0  0  0  0  0  0  0  0  0  0
   30.5330   10.1450   20.6840 H   0  0  0  0  0  0  0  0  0  0  0  0
   28.9140   12.7600   20.5660 H   0  0  0  0  0  0  0  0  0  0  0  0
   30.6240   12.6970   20.8890 H   0  0  0  0  0  0  0  0  0  0  0  0
   30.3460   11.4450   22.9100 H   0  0  0  0  0  0  0  0  0  0  0  0
   28.6500   11.1560   22.6730 H   0  0  0  0  0  0  0  0  0  0  0  0
   26.8010   12.0020   22.5160 H   0  0  0  0  0  0  0  0  0  0  0  0
   24.6560   15.3760   24.0710 H   0  0  0  0  0  0  0  0  0  0  0  0
   26.3680   17.5300   24.0320 H   0  0  0  0  0  0  0  0  0  0  0  0
   27.8870   17.1430   24.8560 H   0  0  0  0  0  0  0  0  0  0  0  0
   26.3470   16.8400   25.6770 H   0  0  0  0  0  0  0  0  0  0  0  0
   23.1710    9.4020   24.3420 H   0  0  0  0  0  0  0  0  0  0  0  0
   20.8010    9.7800   22.8300 H   0  0  0  0  0  0  0  0  0  0  0  0
   21.3210   11.8470   24.4510 H   0  0  0  0  0  0  0  0  0  0  0  0
   22.8600   11.6810   25.3570 H   0  0  0  0  0  0  0  0  0  0  0  0
   21.9700    9.9470   26.6240 H   0  0  0  0  0  0  0  0  0  0  0  0
   20.7370    9.7060   25.5640 H   0  0  0  0  0  0  0  0  0  0  0  0
   20.6370    9.9030   28.5830 H   0  0  0  0  0  0  0  0  0  0  0  0
   19.2120   11.0100   28.7090 H   0  0  0  0  0  0  0  0  0  0  0  0
   20.6890   12.9670   28.3310 H   0  0  0  0  0  0  0  0  0  0  0  0
   22.1230   11.8820   28.1630 H   0  0  0  0  0  0  0  0  0  0  0  0
   18.2880   10.0420   25.6960 H   0  0  0  0  0  0  0  0  0  0  0  0
   16.1980   13.4840   24.2140 H   0  0  0  0  0  0  0  0  0  0  0  0
   17.9500   14.9350   25.1310 H   0  0  0  0  0  0  0  0  0  0  0  0
   19.8750   13.9820   26.3020 H   0  0  0  0  0  0  0  0  0  0  0  0
   15.1300   11.3860   24.1750 H   0  0  0  0  0  0  0  0  0  0  0  0
   17.3670    9.7080   22.9250 H   0  0  0  0  0  0  0  0  0  0  0  0
   16.6750   11.1830   22.2410 H   0  0  0  0  0  0  0  0  0  0  0  0
   15.6710    9.7380   22.4150 H   0  0  0  0  0  0  0  0  0  0  0  0
   16.4590    8.8370   25.1990 H   0  0  0  0  0  0  0  0  0  0  0  0
   14.7820    9.0730   24.7150 H   0  0  0  0  0  0  0  0  0  0  0  0
   15.4010    9.8870   26.1580 H   0  0  0  0  0  0  0  0  0  0  0  0
  1  2  1  0  0  0  0
  1 23  1  0  0  0  0
  1 41  1  0  0  0  0
  2  3  1  0  0  0  0
  2 25  1  0  0  0  0
  2 42  1  0  0  0  0
  3  4  1  0  0  0  0
  3 43  1  0  0  0  0
  3 44  1  0  0  0  0
  4  5  1  0  0  0  0
  4  9  2  0  0  0  0
  5  6  2  0  0  0  0
  5 45  1  0  0  0  0
  6  7  1  0  0  0  0
  6 10  1  0  0  0  0
  7  8  2  0  0  0  0
  7 46  1  0  0  0  0
  8  9  1  0  0  0  0
  8 47  1  0  0  0  0
  9 48  1  0  0  0  0
 10 11  1  0  0  0  0
 11 12  1  0  0  0  0
 11 49  1  0  0  0  0
 11 50  1  0  0  0  0
 12 13  1  0  0  0  0
 12 51  1  0  0  0  0
 12 52  1  0  0  0  0
 13 14  1  0  0  0  0
 13 53  1  0  0  0  0
 13 54  1  0  0  0  0
 14 15  1  0  0  0  0
 14 55  1  0  0  0  0
 14 56  1  0  0  0  0
 15 16  1  0  0  0  0
 16 17  1  0  0  0  0
 16 21  2  0  0  0  0
 17 18  2  0  0  0  0
 17 57  1  0  0  0  0
 18 19  1  0  0  0  0
 18 23  1  0  0  0  0
 19 20  2  0  0  0  0
 19 58  1  0  0  0  0
 20 21  1  0  0  0  0
 20 22  1  0  0  0  0
 22 59  1  0  0  0  0
 22 60  1  0  0  0  0
 22 61  1  0  0  0  0
 23 24  2  0  0  0  0
 25 26  1  0  0  0  0
 25 27  1  0  0  0  0
 25 62  1  0  0  0  0
 26 63  1  0  0  0  0
 27 28  1  0  0  0  0
 27 64  1  0  0  0  0
 27 65  1  0  0  0  0
 28 29  1  0  0  0  0
 28 66  1  0  0  0  0
 28 67  1  0  0  0  0
 29 30  1  0  0  0  0
 29 31  1  0  0  0  0
 29 32  1  0  0  0  0
 30 31  1  0  0  0  0
 30 68  1  0  0  0  0
 30 69  1  0  0  0  0
 31 70  1  0  0  0  0
 31 71  1  0  0  0  0
 32 33  1  0  0  0  0
 32 37  2  0  0  0  0
 33 34  2  0  0  0  0
 33 72  1  0  0  0  0
 34 35  1  0  0  0  0
 34 38  1  0  0  0  0
 35 36  2  0  0  0  0
 35 73  1  0  0  0  0
 36 37  1  0  0  0  0
 36 74  1  0  0  0  0
 37 75  1  0  0  0  0
 38 39  1  0  0  0  0
 38 40  1  0  0  0  0
 38 76  1  0  0  0  0
 39 77  1  0  0  0  0
 39 78  1  0  0  0  0
 39 79  1  0  0  0  0
 40 80  1  0  0  0  0
 40 81  1  0  0  0  0
 40 82  1  0  0  0  0
M  CHG  1  28   1
M  END
>  <PARENT_CMPD_ID>
CHEMBL600326

>  <STANDARD_TYPE>
IC50

>  <RELATION>
=

>  <STANDARD_VALUE>
17

>  <STANDARD_UNITS>
nM

>  <COMPOUND_KEY>
20

>  <PUBMED_ID>
19963375

>  <JOURNAL>
Bioorg. Med. Chem. Lett.

>  <YEAR>
2010

>  <VOLUME>
20

>  <FIRST_PAGE>
603

>  <Company>
Novartis

>  <idx>
469

>  <Model>
Valid

>  <target>
7.7695513

>  <des_pred_mlr>
7.56144

>  <RF_Canvas>
7.6427741

>  <DNN_Canvas>
7.3935261

>  <pred_CoMFA>
7.3625002

>  <pred_COMSIA>
7.7776999

>  <pred_abm5>
7.7081108

>  <pred_ff8>
7.170661

>  <pred_gau6>
7.3751793

>  <CID>
BACE_469

>  <active>
1

>  <des_class_bayes>
1

>  <maacs_class_bayes>
0

>  <radial_class_bayes>
1

>  <dend_class_bayes>
1

>  <molprint_class_bayes>
1

>  <RF_canvas>
1

>  <DNN_canvas>
1

$$$$
CHEMBL1917906
  MOE2015           3D

105109  0  0  1  0  0  0  0  0999 V2000
   25.4040   20.3870   25.2290 C   0  0  0  0  0  0  0  0  0  0  0  0
   25.3900   21.4600   25.1100 H   0  0  0  0  0  0  0  0  0  0  0  0
   17.1250   13.0570   26.9570 C   0  0  0  0  0  0  0  0  0  0  0  0
   16.1740   13.4740   26.6600 H   0  0  0  0  0  0  0  0  0  0  0  0
   17.4440   12.9360   28.3940 C   0  0  0  0  0  0  0  0  0  0  0  0
   16.7830   13.2700   29.1800 H   0  0  0  0  0  0  0  0  0  0  0  0
   24.7100   19.8080   26.3260 C   0  0  0  0  0  0  0  0  0  0  0  0
   24.1640   20.4060   27.0400 H   0  0  0  0  0  0  0  0  0  0  0  0
   26.1300   19.5830   24.2640 C   0  0  0  0  0  0  0  0  0  0  0  0
   26.6460   20.0670   23.4480 H   0  0  0  0  0  0  0  0  0  0  0  0
   17.9900   12.6600   26.0130 C   0  0  0  0  0  0  0  0  0  0  0  0
   17.7110   12.7940   24.9780 H   0  0  0  0  0  0  0  0  0  0  0  0
   18.6360   12.3710   28.6240 C   0  0  0  0  0  0  0  0  0  0  0  0
   19.0020   12.1800   29.9370 O   0  0  0  0  0  0  0  0  0  0  0  0
   18.0500   12.6140   30.8930 C   0  0  0  0  0  0  0  0  0  0  0  0
   18.4290   12.4210   31.8970 H   0  0  0  0  0  0  0  0  0  0  0  0
   17.1150   12.0730   30.7480 H   0  0  0  0  0  0  0  0  0  0  0  0
   17.8060   14.0930   30.7240 C   0  0  0  0  0  0  0  0  0  0  0  0
   16.7930   14.5550   31.7420 C   0  0  0  0  0  0  0  0  0  0  0  0
   16.6170   15.6240   31.6190 H   0  0  0  0  0  0  0  0  0  0  0  0
   17.1720   14.3620   32.7450 H   0  0  0  0  0  0  0  0  0  0  0  0
   15.8580   14.0130   31.5960 H   0  0  0  0  0  0  0  0  0  0  0  0
   17.4260   14.2860   29.7210 H   0  0  0  0  0  0  0  0  0  0  0  0
   18.7400   14.6340   30.8700 H   0  0  0  0  0  0  0  0  0  0  0  0
   24.7800   18.3870   26.4240 C   0  0  0  0  0  0  0  0  0  0  0  0
   24.2830   17.8880   27.2430 H   0  0  0  0  0  0  0  0  0  0  0  0
   26.1700   18.1870   24.3770 C   0  0  0  0  0  0  0  0  0  0  0  0
   26.7000   17.5790   23.6580 H   0  0  0  0  0  0  0  0  0  0  0  0
   25.0690   10.5070   20.2620 C   0  0  0  0  0  0  0  0  0  0  0  0
   25.7550    9.7530   20.6180 H   0  0  0  0  0  0  0  0  0  0  0  0
   23.1240   11.7620   20.4440 C   0  0  0  0  0  0  0  0  0  0  0  0
   22.2250   12.0200   20.9840 H   0  0  0  0  0  0  0  0  0  0  0  0
   24.4980   12.1410   18.5340 C   0  0  0  0  0  0  0  0  0  0  0  0
   24.7110   12.6320   17.5960 H   0  0  0  0  0  0  0  0  0  0  0  0
   19.3020   12.0500   26.3050 C   0  0  0  0  0  0  0  0  0  0  0  0
   19.6180   11.9240   27.5530 C   0  0  0  0  0  0  0  0  0  0  0  0
   25.4930   17.6110   25.4630 C   0  0  0  0  0  0  0  0  0  0  0  0
   23.9450   10.7950   20.9700 C   0  0  0  0  0  0  0  0  0  0  0  0
   25.3340   11.1920   19.0690 C   0  0  0  0  0  0  0  0  0  0  0  0
   23.3880   12.4220   19.2600 C   0  0  0  0  0  0  0  0  0  0  0  0
   27.1760   13.4810   23.7880 C   0  0  0  0  0  0  0  0  0  0  0  0
   29.5920   15.1570   23.0220 C   0  0  0  0  0  0  0  0  0  0  0  0
   23.7880   13.1820   23.7990 C   0  0  0  0  0  0  0  0  0  0  0  0
   20.1430   11.5960   25.1520 C   0  0  0  0  0  0  0  0  0  0  0  0
   20.2660   12.4470   24.4820 H   0  0  0  0  0  0  0  0  0  0  0  0
   19.5950   10.8060   24.6390 H   0  0  0  0  0  0  0  0  0  0  0  0
   20.9600   11.3460   27.9770 C   0  0  0  0  0  0  0  0  0  0  0  0
   20.7950   10.7120   28.8480 H   0  0  0  0  0  0  0  0  0  0  0  0
   21.6140   12.1750   28.2500 H   0  0  0  0  0  0  0  0  0  0  0  0
   27.3760   13.9370   21.3510 C   0  0  0  0  0  0  0  0  0  0  0  0
   27.9240   14.8250   21.0380 H   0  0  0  0  0  0  0  0  0  0  0  0
   27.2780   13.2550   20.5070 H   0  0  0  0  0  0  0  0  0  0  0  0
   26.0100   14.2920   21.9640 C   0  0  0  0  0  0  0  0  0  0  0  0
   25.2350   13.6800   21.5030 H   0  0  0  0  0  0  0  0  0  0  0  0
   25.7950   15.3460   21.7870 H   0  0  0  0  0  0  0  0  0  0  0  0
   21.5570   11.0490   25.4720 C   0  0  3  0  0  0  0  0  0  0  0  0
   22.1620   11.9520   25.3940 H   0  0  0  0  0  0  0  0  0  0  0  0
   28.0390   13.2480   22.5810 C   0  0  3  0  0  0  0  0  0  0  0  0
   30.9660   15.7280   23.2600 C   0  0  0  0  0  0  0  0  0  0  0  0
   31.7000   14.9230   23.2570 H   0  0  0  0  0  0  0  0  0  0  0  0
   30.9880   16.2350   24.2250 H   0  0  0  0  0  0  0  0  0  0  0  0
   31.2060   16.4400   22.4710 H   0  0  0  0  0  0  0  0  0  0  0  0
   25.5270   16.0950   25.6310 C   0  0  0  0  0  0  0  0  0  0  0  0
   25.2070   15.8190   26.6360 H   0  0  0  0  0  0  0  0  0  0  0  0
   26.5340   15.7180   25.4540 H   0  0  0  0  0  0  0  0  0  0  0  0
   23.5730   10.0500   22.2510 C   0  0  0  0  0  0  0  0  0  0  0  0
   24.4790    9.6300   22.6870 H   0  0  0  0  0  0  0  0  0  0  0  0
   22.8840    9.2440   21.9990 H   0  0  0  0  0  0  0  0  0  0  0  0
   28.2340   11.7380   22.3400 C   0  0  3  0  0  0  0  0  0  0  0  0
   27.2740   11.2260   22.4090 H   0  0  0  0  0  0  0  0  0  0  0  0
   29.1800   11.1730   23.3690 C   0  0  0  0  0  0  0  0  0  0  0  0
   29.3650    9.6970   23.1260 C   0  0  0  0  0  0  0  0  0  0  0  0
   30.0490    9.2890   23.8700 H   0  0  0  0  0  0  0  0  0  0  0  0
   29.7780    9.5420   22.1290 H   0  0  0  0  0  0  0  0  0  0  0  0
   28.4020    9.1930   23.2030 H   0  0  0  0  0  0  0  0  0  0  0  0
   28.7680   11.3290   24.3660 H   0  0  0  0  0  0  0  0  0  0  0  0
   30.1440   11.6780   23.2930 H   0  0  0  0  0  0  0  0  0  0  0  0
   24.5660   15.5340   24.6000 C   0  0  0  0  0  0  0  0  0  0  0  0
   24.6370   16.1150   23.6810 H   0  0  0  0  0  0  0  0  0  0  0  0
   23.5470   15.5850   24.9850 H   0  0  0  0  0  0  0  0  0  0  0  0
   24.9330   14.0820   24.3160 C   0  0  3  0  0  0  0  0  0  0  0  0
   25.1870   13.6600   25.2890 H   0  0  0  0  0  0  0  0  0  0  0  0
   22.2720   10.1410   24.4040 C   0  0  3  0  0  0  0  0  0  0  0  0
   23.0370    9.6490   25.0050 H   0  0  0  0  0  0  0  0  0  0  0  0
   28.8120   11.5550   20.9610 C   0  0  0  0  0  0  0  0  0  0  0  0
   28.4850   12.3580   20.3000 H   0  0  0  0  0  0  0  0  0  0  0  0
   28.4440   10.6540   20.4690 H   0  0  0  0  0  0  0  0  0  0  0  0
   29.8910   11.5210   21.1110 H   0  0  0  0  0  0  0  0  0  0  0  0
   22.9060   10.9610   23.2860 C   0  0  3  0  0  0  0  0  0  0  0  0
   22.0890   11.5400   22.8550 H   0  0  0  0  0  0  0  0  0  0  0  0
   21.6720   10.5120   26.9120 N   0  3  0  0  0  0  0  0  0  0  0  0
   21.2800    9.5810   26.9310 H   0  0  0  0  0  0  0  0  0  0  0  0
   22.6520   10.4690   27.1520 H   0  0  0  0  0  0  0  0  0  0  0  0
   26.0430   14.0320   23.4270 N   0  0  0  0  0  0  0  0  0  0  0  0
   29.2970   13.8780   22.8240 N   0  0  0  0  0  0  0  0  0  0  0  0
   30.0880   13.2510   22.8490 H   0  0  0  0  0  0  0  0  0  0  0  0
   23.9500   11.8400   23.7680 N   0  0  0  0  0  0  0  0  0  0  0  0
   24.8210   11.4410   24.0890 H   0  0  0  0  0  0  0  0  0  0  0  0
   27.4660   13.1340   24.8960 O   0  0  0  0  0  0  0  0  0  0  0  0
   28.6660   15.9310   22.9980 O   0  0  0  0  0  0  0  0  0  0  0  0
   22.7030   13.6580   23.4710 O   0  0  0  0  0  0  0  0  0  0  0  0
   21.5030    9.0740   23.8350 O   0  0  0  0  0  0  0  0  0  0  0  0
   20.8140    9.4690   23.2950 H   0  0  0  0  0  0  0  0  0  0  0  0
   26.4680   10.9370   18.3800 F   0  0  0  0  0  0  0  0  0  0  0  0
   22.5470   13.3570   18.8440 F   0  0  0  0  0  0  0  0  0  0  0  0
  1  2  1  0  0  0  0
  1  7  2  0  0  0  0
  1  9  1  0  0  0  0
  3  4  1  0  0  0  0
  3  5  2  0  0  0  0
  3 11  1  0  0  0  0
  5  6  1  0  0  0  0
  5 13  1  0  0  0  0
  7  8  1  0  0  0  0
  7 25  1  0  0  0  0
  9 10  1  0  0  0  0
  9 27  2  0  0  0  0
 11 12  1  0  0  0  0
 11 35  2  0  0  0  0
 13 14  1  0  0  0  0
 13 36  2  0  0  0  0
 14 15  1  0  0  0  0
 15 16  1  0  0  0  0
 15 17  1  0  0  0  0
 15 18  1  0  0  0  0
 18 19  1  0  0  0  0
 18 23  1  0  0  0  0
 18 24  1  0  0  0  0
 19 20  1  0  0  0  0
 19 21  1  0  0  0  0
 19 22  1  0  0  0  0
 25 26  1  0  0  0  0
 25 37  2  0  0  0  0
 27 28  1  0  0  0  0
 27 37  1  0  0  0  0
 29 30  1  0  0  0  0
 29 38  2  0  0  0  0
 29 39  1  0  0  0  0
 31 32  1  0  0  0  0
 31 38  1  0  0  0  0
 31 40  2  0  0  0  0
 33 34  1  0  0  0  0
 33 39  2  0  0  0  0
 33 40  1  0  0  0  0
 35 36  1  0  0  0  0
 35 44  1  0  0  0  0
 36 47  1  0  0  0  0
 37 63  1  0  0  0  0
 38 66  1  0  0  0  0
 39104  1  0  0  0  0
 40105  1  0  0  0  0
 41 58  1  0  0  0  0
 41 94  1  0  0  0  0
 41 99  2  0  0  0  0
 42 59  1  0  0  0  0
 42 95  1  0  0  0  0
 42100  2  0  0  0  0
 43 81  1  0  0  0  0
 43 97  1  0  0  0  0
 43101  2  0  0  0  0
 44 45  1  0  0  0  0
 44 46  1  0  0  0  0
 44 56  1  0  0  0  0
 47 48  1  0  0  0  0
 47 49  1  0  0  0  0
 47 91  1  0  0  0  0
 50 51  1  0  0  0  0
 50 52  1  0  0  0  0
 50 53  1  0  0  0  0
 50 58  1  0  0  0  0
 53 54  1  0  0  0  0
 53 55  1  0  0  0  0
 53 94  1  0  0  0  0
 56 57  1  0  0  0  0
 56 83  1  0  0  0  0
 56 91  1  0  0  0  0
 58 69  1  0  0  0  0
 58 95  1  0  0  0  0
 59 60  1  0  0  0  0
 59 61  1  0  0  0  0
 59 62  1  0  0  0  0
 63 64  1  0  0  0  0
 63 65  1  0  0  0  0
 63 78  1  0  0  0  0
 66 67  1  0  0  0  0
 66 68  1  0  0  0  0
 66 89  1  0  0  0  0
 69 70  1  0  0  0  0
 69 71  1  0  0  0  0
 69 85  1  0  0  0  0
 71 72  1  0  0  0  0
 71 76  1  0  0  0  0
 71 77  1  0  0  0  0
 72 73  1  0  0  0  0
 72 74  1  0  0  0  0
 72 75  1  0  0  0  0
 78 79  1  0  0  0  0
 78 80  1  0  0  0  0
 78 81  1  0  0  0  0
 81 82  1  0  0  0  0
 81 94  1  0  0  0  0
 83 84  1  0  0  0  0
 83 89  1  0  0  0  0
 83102  1  0  0  0  0
 85 86  1  0  0  0  0
 85 87  1  0  0  0  0
 85 88  1  0  0  0  0
 89 90  1  0  0  0  0
 89 97  1  0  0  0  0
 91 92  1  0  0  0  0
 91 93  1  0  0  0  0
 95 96  1  0  0  0  0
 97 98  1  0  0  0  0
102103  1  0  0  0  0
M  CHG  1  91   1
M  END
>  <PARENT_CMPD_ID>
CHEMBL1917906

>  <STANDARD_TYPE>
IC50

>  <RELATION>
=

>  <STANDARD_VALUE>
17

>  <STANDARD_UNITS>
nM

>  <COMPOUND_KEY>
14d

>  <PUBMED_ID>
21974952

>  <JOURNAL>
Bioorg.Med.Chem.Lett.

>  <YEAR>
2011

>  <VOLUME>
21

>  <FIRST_PAGE>
6909

>  <Company>
BMS

>  <idx>
470

>  <Model>
Valid

>  <target>
7.7695513

>  <des_pred_mlr>
8.2537603

>  <RF_Canvas>
7.9384294

>  <DNN_Canvas>
8.0522699

>  <pred_CoMFA>
8.4331999

>  <pred_COMSIA>
8.7636003

>  <pred_abm5>
8.4751863

>  <pred_ff8>
8.0896788

>  <pred_gau6>
9.1194801

>  <CID>
BACE_470

>  <active>
1

>  <des_class_bayes>
1

>  <maacs_class_bayes>
1

>  <radial_class_bayes>
0

>  <dend_class_bayes>
1

>  <molprint_class_bayes>
1

>  <RF_canvas>
1

>  <DNN_canvas>
1

$$$$
23590342_14l
  MOE2015           3D

 44 46  0  0  1  0  0  0  0  0999 V2000
   22.6160   12.2000   23.3760 C   0  0  0  0  0  0  0  0  0  0  0  0
   21.5780   11.7800   22.3740 C   0  0  0  0  0  0  0  0  0  0  0  0
   22.9310   11.1580   24.3080 O   0  0  0  0  0  0  0  0  0  0  0  0
   22.6810    9.8740   23.9760 C   0  0  0  0  0  0  0  0  0  0  0  0
   22.2330    9.4550   22.8510 N   0  0  0  0  0  0  0  0  0  0  0  0
   21.9360   10.4150   21.7760 C   0  0  3  0  0  0  0  0  0  0  0  0
   23.1060   10.5470   20.7920 C   0  0  0  0  0  0  0  0  0  0  0  0
   24.4230   10.2370   21.1760 C   0  0  0  0  0  0  0  0  0  0  0  0
   25.5140   10.4520   20.3300 C   0  0  0  0  0  0  0  0  0  0  0  0
   25.2760   10.9340   19.0470 C   0  0  0  0  0  0  0  0  0  0  0  0
   23.9860   11.2250   18.6330 C   0  0  0  0  0  0  0  0  0  0  0  0
   22.9280   11.0450   19.5030 C   0  0  0  0  0  0  0  0  0  0  0  0
   21.7160   11.3890   19.0670 F   0  0  0  0  0  0  0  0  0  0  0  0
   22.9790    9.0330   24.9810 N   0  0  0  0  0  0  0  0  0  0  0  0
   20.6900    9.8300   21.0840 C   0  0  0  0  0  0  0  0  0  0  0  0
   26.8010   10.1950   20.8460 N   0  0  0  0  0  0  0  0  0  0  0  0
   28.0050   10.5140   20.2460 C   0  0  0  0  0  0  0  0  0  0  0  0
   29.2000   10.1430   21.0720 C   0  0  0  0  0  0  0  0  0  0  0  0
   28.1080   11.0970   19.1760 O   0  0  0  0  0  0  0  0  0  0  0  0
   28.9230    9.2880   22.0940 N   0  0  0  0  0  0  0  0  0  0  0  0
   29.9600    8.9320   22.8890 C   0  0  0  0  0  0  0  0  0  0  0  0
   31.2530    9.3920   22.7190 C   0  0  0  0  0  0  0  0  0  0  0  0
   31.5050   10.2650   21.6770 C   0  0  0  0  0  0  0  0  0  0  0  0
   30.4730   10.6610   20.8280 C   0  0  0  0  0  0  0  0  0  0  0  0
   32.5300    8.9040   23.7590 Cl  0  0  0  0  0  0  0  0  0  0  0  0
   20.3840   11.7140   23.0140 F   0  0  0  0  0  0  0  0  0  0  0  0
   21.4410   12.7280   21.4270 F   0  0  0  0  0  0  0  0  0  0  0  0
   22.2450   13.0510   23.9570 H   0  0  0  0  0  0  0  0  0  0  0  0
   23.5450   12.5280   22.8970 H   0  0  0  0  0  0  0  0  0  0  0  0
   24.6180    9.8480   22.1730 H   0  0  0  0  0  0  0  0  0  0  0  0
   26.0770   11.0970   18.3340 H   0  0  0  0  0  0  0  0  0  0  0  0
   23.8020   11.6110   17.6350 H   0  0  0  0  0  0  0  0  0  0  0  0
   22.8360    8.0410   24.8580 H   0  0  0  0  0  0  0  0  0  0  0  0
   23.3430    9.3860   25.8530 H   0  0  0  0  0  0  0  0  0  0  0  0
   19.9340    9.5360   21.8230 H   0  0  0  0  0  0  0  0  0  0  0  0
   20.9380    8.9300   20.5090 H   0  0  0  0  0  0  0  0  0  0  0  0
   20.2010   10.5420   20.4120 H   0  0  0  0  0  0  0  0  0  0  0  0
   26.8830    9.7410   21.7550 H   0  0  0  0  0  0  0  0  0  0  0  0
   29.7110    8.2420   23.6900 H   0  0  0  0  0  0  0  0  0  0  0  0
   32.5150   10.6410   21.5250 H   0  0  0  0  0  0  0  0  0  0  0  0
   30.7810   11.6140   19.7180 C   0  0  0  0  0  0  0  0  0  0  0  0
   31.8240   11.9480   19.7510 H   0  0  0  0  0  0  0  0  0  0  0  0
   30.1610   12.5130   19.7960 H   0  0  0  0  0  0  0  0  0  0  0  0
   30.6280   11.1360   18.7460 H   0  0  0  0  0  0  0  0  0  0  0  0
  1  2  1  0  0  0  0
  1  3  1  0  0  0  0
  1 28  1  0  0  0  0
  1 29  1  0  0  0  0
  2  6  1  0  0  0  0
  2 26  1  0  0  0  0
  2 27  1  0  0  0  0
  3  4  1  0  0  0  0
  4  5  2  0  0  0  0
  4 14  1  0  0  0  0
  5  6  1  0  0  0  0
  6  7  1  0  0  0  0
  6 15  1  0  0  0  0
  7  8  1  0  0  0  0
  7 12  2  0  0  0  0
  8  9  2  0  0  0  0
  8 30  1  0  0  0  0
  9 10  1  0  0  0  0
  9 16  1  0  0  0  0
 10 11  2  0  0  0  0
 10 31  1  0  0  0  0
 11 12  1  0  0  0  0
 11 32  1  0  0  0  0
 12 13  1  0  0  0  0
 14 33  1  0  0  0  0
 14 34  1  0  0  0  0
 15 35  1  0  0  0  0
 15 36  1  0  0  0  0
 15 37  1  0  0  0  0
 16 17  1  0  0  0  0
 16 38  1  0  0  0  0
 17 18  1  0  0  0  0
 17 19  2  0  0  0  0
 18 20  1  0  0  0  0
 18 24  2  0  0  0  0
 20 21  2  0  0  0  0
 21 22  1  0  0  0  0
 21 39  1  0  0  0  0
 22 23  2  0  0  0  0
 22 25  1  0  0  0  0
 23 24  1  0  0  0  0
 23 40  1  0  0  0  0
 24 41  1  0  0  0  0
 41 42  1  0  0  0  0
 41 43  1  0  0  0  0
 41 44  1  0  0  0  0
M  END
>  <PARENT_CMPD_ID>
23590342_14l

>  <STANDARD_TYPE>
IC50

>  <RELATION>
=

>  <STANDARD_VALUE>
0.017000001

>  <STANDARD_UNITS>
uM

>  <COMPOUND_KEY>
14l

>  <PUBMED_ID>
23590342

>  <JOURNAL>
J.Med.Chem.

>  <YEAR>
2013

>  <VOLUME>
56

>  <FIRST_PAGE>
3980

>  <Company>
Roche

>  <idx>
471

>  <Model>
Valid

>  <target>
7.7695513

>  <des_pred_mlr>
7.0528598

>  <RF_Canvas>
7.2032247

>  <DNN_Canvas>
7.091218

>  <pred_CoMFA>
6.4839001

>  <pred_COMSIA>
6.6359

>  <pred_abm5>
6.724277

>  <pred_ff8>
6.2845187

>  <pred_gau6>
7.030457

>  <CID>
BACE_471

>  <active>
1

>  <des_class_bayes>
1

>  <maacs_class_bayes>
0

>  <radial_class_bayes>
0

>  <dend_class_bayes>
1

>  <molprint_class_bayes>
1

>  <RF_canvas>
1

>  <DNN_canvas>
1

$$$$
CHEMBL501927
  MOE2015           3D

 85 88  0  0  1  0  0  0  0  0999 V2000
   30.5000   11.6290   20.8900 C   0  0  0  0  0  0  0  0  0  0  0  0
   29.0840   12.0820   21.1390 C   0  0  0  0  0  0  0  0  0  0  0  0
   29.0890   13.3230   21.8770 N   0  0  0  0  0  0  0  0  0  0  0  0
   28.0490   13.7220   22.7010 C   0  0  0  0  0  0  0  0  0  0  0  0
   26.8060   13.0690   22.7030 C   0  0  0  0  0  0  0  0  0  0  0  0
   25.7640   13.4610   23.5470 C   0  0  0  0  0  0  0  0  0  0  0  0
   25.9590   14.5170   24.4200 C   0  0  0  0  0  0  0  0  0  0  0  0
   27.1850   15.1750   24.4610 C   0  0  0  0  0  0  0  0  0  0  0  0
   27.3900   16.2180   25.4130 N   0  0  0  0  0  0  0  0  0  0  0  0
   26.5650   17.4150   25.3810 C   0  0  0  0  0  0  0  0  0  0  0  0
   25.4200   17.3150   26.3800 C   0  0  0  0  0  0  0  0  0  0  0  0
   25.6180   16.3180   27.5230 C   0  0  0  0  0  0  0  0  0  0  0  0
   27.0300   16.2960   28.0740 C   0  0  0  0  0  0  0  0  0  0  0  0
   28.2520   15.9050   26.8330 S   0  0  0  0  0  0  0  0  0  0  0  0
   28.5690   14.4960   26.8900 O   0  0  0  0  0  0  0  0  0  0  0  0
   29.2840   16.9080   26.9440 O   0  0  0  0  0  0  0  0  0  0  0  0
   28.2200   14.7880   23.5970 C   0  0  0  0  0  0  0  0  0  0  0  0
   29.3530   15.5650   23.5340 O   0  0  0  0  0  0  0  0  0  0  0  0
   30.4550   14.9640   24.2030 C   0  0  0  0  0  0  0  0  0  0  0  0
   24.4220   12.8170   23.4860 C   0  0  0  0  0  0  0  0  0  0  0  0
   23.3900   13.4670   23.6030 O   0  0  0  0  0  0  0  0  0  0  0  0
   24.4100   11.4590   23.2460 N   0  0  0  0  0  0  0  0  0  0  0  0
   23.1790   10.7300   22.9290 C   0  0  3  0  0  0  0  0  0  0  0  0
   23.4340    9.7840   21.7330 C   0  0  0  0  0  0  0  0  0  0  0  0
   24.2620   10.4100   20.6410 C   0  0  0  0  0  0  0  0  0  0  0  0
   23.8560   11.5900   20.0210 C   0  0  0  0  0  0  0  0  0  0  0  0
   24.6640   12.2020   19.0720 C   0  0  0  0  0  0  0  0  0  0  0  0
   25.8760   11.6300   18.7170 C   0  0  0  0  0  0  0  0  0  0  0  0
   26.2780   10.4430   19.3080 C   0  0  0  0  0  0  0  0  0  0  0  0
   25.4780    9.8360   20.2670 C   0  0  0  0  0  0  0  0  0  0  0  0
   22.6170    9.9800   24.1590 C   0  0  3  0  0  0  0  0  0  0  0  0
   21.4620    9.1860   23.8280 O   0  0  0  0  0  0  0  0  0  0  0  0
   22.1680   10.9490   25.2590 C   0  0  0  0  0  0  0  0  0  0  0  0
   21.3490   10.1530   26.2370 N   0  3  0  0  0  0  0  0  0  0  0  0
   20.4410   10.9290   27.1230 C   0  0  0  0  0  0  0  0  0  0  0  0
   19.2970   11.5860   26.4100 C   0  0  0  0  0  0  0  0  0  0  0  0
   19.1220   12.9680   26.4640 C   0  0  0  0  0  0  0  0  0  0  0  0
   18.0770   13.5770   25.7820 C   0  0  0  0  0  0  0  0  0  0  0  0
   17.1900   12.8130   25.0410 C   0  0  0  0  0  0  0  0  0  0  0  0
   17.3320   11.4260   24.9940 C   0  0  0  0  0  0  0  0  0  0  0  0
   18.3880   10.8220   25.6790 C   0  0  0  0  0  0  0  0  0  0  0  0
   16.3780   10.5890   24.1870 C   0  0  0  0  0  0  0  0  0  0  0  0
   16.3420    9.2860   24.5810 F   0  0  0  0  0  0  0  0  0  0  0  0
   15.0940   11.0320   24.2510 F   0  0  0  0  0  0  0  0  0  0  0  0
   16.7090   10.5680   22.8690 F   0  0  0  0  0  0  0  0  0  0  0  0
   30.5090   10.6860   20.3340 H   0  0  0  0  0  0  0  0  0  0  0  0
   31.0380   11.4750   21.8310 H   0  0  0  0  0  0  0  0  0  0  0  0
   31.0560   12.3710   20.3070 H   0  0  0  0  0  0  0  0  0  0  0  0
   28.5820   11.2830   21.6970 H   0  0  0  0  0  0  0  0  0  0  0  0
   28.5630   12.2230   20.1880 H   0  0  0  0  0  0  0  0  0  0  0  0
   29.8800   13.9540   21.7900 H   0  0  0  0  0  0  0  0  0  0  0  0
   26.6200   12.2800   21.9800 H   0  0  0  0  0  0  0  0  0  0  0  0
   25.1390   14.8240   25.0590 H   0  0  0  0  0  0  0  0  0  0  0  0
   27.1940   18.2810   25.6240 H   0  0  0  0  0  0  0  0  0  0  0  0
   26.1780   17.6090   24.3740 H   0  0  0  0  0  0  0  0  0  0  0  0
   25.2390   18.3140   26.7970 H   0  0  0  0  0  0  0  0  0  0  0  0
   24.4960   17.0510   25.8510 H   0  0  0  0  0  0  0  0  0  0  0  0
   25.3500   15.3090   27.1920 H   0  0  0  0  0  0  0  0  0  0  0  0
   24.9160   16.5610   28.3300 H   0  0  0  0  0  0  0  0  0  0  0  0
   27.1250   15.5540   28.8720 H   0  0  0  0  0  0  0  0  0  0  0  0
   27.2850   17.2790   28.4840 H   0  0  0  0  0  0  0  0  0  0  0  0
   30.8580   15.6810   24.9230 H   0  0  0  0  0  0  0  0  0  0  0  0
   31.2390   14.7500   23.4710 H   0  0  0  0  0  0  0  0  0  0  0  0
   30.2050   14.0370   24.7320 H   0  0  0  0  0  0  0  0  0  0  0  0
   25.2880   10.9470   23.2610 H   0  0  0  0  0  0  0  0  0  0  0  0
   22.4230   11.4560   22.6030 H   0  0  0  0  0  0  0  0  0  0  0  0
   23.9410    8.8810   22.0960 H   0  0  0  0  0  0  0  0  0  0  0  0
   22.4820    9.4500   21.3020 H   0  0  0  0  0  0  0  0  0  0  0  0
   22.9070   12.0550   20.2810 H   0  0  0  0  0  0  0  0  0  0  0  0
   24.3410   13.1270   18.6030 H   0  0  0  0  0  0  0  0  0  0  0  0
   26.5060   12.1100   17.9730 H   0  0  0  0  0  0  0  0  0  0  0  0
   27.2270    9.9930   19.0290 H   0  0  0  0  0  0  0  0  0  0  0  0
   25.8210    8.9130   20.7280 H   0  0  0  0  0  0  0  0  0  0  0  0
   23.3720    9.2970   24.5670 H   0  0  0  0  0  0  0  0  0  0  0  0
   21.7390    8.4840   23.2090 H   0  0  0  0  0  0  0  0  0  0  0  0
   21.5150   11.7230   24.8460 H   0  0  0  0  0  0  0  0  0  0  0  0
   22.9990   11.4020   25.8050 H   0  0  0  0  0  0  0  0  0  0  0  0
   20.8070    9.5140   25.6250 H   0  0  0  0  0  0  0  0  0  0  0  0
   21.9550    9.5400   26.7930 H   0  0  0  0  0  0  0  0  0  0  0  0
   20.0510   10.2200   27.8620 H   0  0  0  0  0  0  0  0  0  0  0  0
   21.0670   11.6530   27.6570 H   0  0  0  0  0  0  0  0  0  0  0  0
   19.8040   13.5940   27.0350 H   0  0  0  0  0  0  0  0  0  0  0  0
   17.9550   14.6570   25.8260 H   0  0  0  0  0  0  0  0  0  0  0  0
   16.3780   13.3030   24.5060 H   0  0  0  0  0  0  0  0  0  0  0  0
   18.4880    9.7380   25.6380 H   0  0  0  0  0  0  0  0  0  0  0  0
  1  2  1  0  0  0  0
  1 46  1  0  0  0  0
  1 47  1  0  0  0  0
  1 48  1  0  0  0  0
  2  3  1  0  0  0  0
  2 49  1  0  0  0  0
  2 50  1  0  0  0  0
  3  4  1  0  0  0  0
  3 51  1  0  0  0  0
  4  5  1  0  0  0  0
  4 17  2  0  0  0  0
  5  6  2  0  0  0  0
  5 52  1  0  0  0  0
  6  7  1  0  0  0  0
  6 20  1  0  0  0  0
  7  8  2  0  0  0  0
  7 53  1  0  0  0  0
  8  9  1  0  0  0  0
  8 17  1  0  0  0  0
  9 10  1  0  0  0  0
  9 14  1  0  0  0  0
 10 11  1  0  0  0  0
 10 54  1  0  0  0  0
 10 55  1  0  0  0  0
 11 12  1  0  0  0  0
 11 56  1  0  0  0  0
 11 57  1  0  0  0  0
 12 13  1  0  0  0  0
 12 58  1  0  0  0  0
 12 59  1  0  0  0  0
 13 14  1  0  0  0  0
 13 60  1  0  0  0  0
 13 61  1  0  0  0  0
 14 15  2  0  0  0  0
 14 16  2  0  0  0  0
 17 18  1  0  0  0  0
 18 19  1  0  0  0  0
 19 62  1  0  0  0  0
 19 63  1  0  0  0  0
 19 64  1  0  0  0  0
 20 21  2  0  0  0  0
 20 22  1  0  0  0  0
 22 23  1  0  0  0  0
 22 65  1  0  0  0  0
 23 24  1  0  0  0  0
 23 31  1  0  0  0  0
 23 66  1  0  0  0  0
 24 25  1  0  0  0  0
 24 67  1  0  0  0  0
 24 68  1  0  0  0  0
 25 26  1  0  0  0  0
 25 30  2  0  0  0  0
 26 27  2  0  0  0  0
 26 69  1  0  0  0  0
 27 28  1  0  0  0  0
 27 70  1  0  0  0  0
 28 29  2  0  0  0  0
 28 71  1  0  0  0  0
 29 30  1  0  0  0  0
 29 72  1  0  0  0  0
 30 73  1  0  0  0  0
 31 32  1  0  0  0  0
 31 33  1  0  0  0  0
 31 74  1  0  0  0  0
 32 75  1  0  0  0  0
 33 34  1  0  0  0  0
 33 76  1  0  0  0  0
 33 77  1  0  0  0  0
 34 35  1  0  0  0  0
 34 78  1  0  0  0  0
 34 79  1  0  0  0  0
 35 36  1  0  0  0  0
 35 80  1  0  0  0  0
 35 81  1  0  0  0  0
 36 37  1  0  0  0  0
 36 41  2  0  0  0  0
 37 38  2  0  0  0  0
 37 82  1  0  0  0  0
 38 39  1  0  0  0  0
 38 83  1  0  0  0  0
 39 40  2  0  0  0  0
 39 84  1  0  0  0  0
 40 41  1  0  0  0  0
 40 42  1  0  0  0  0
 41 85  1  0  0  0  0
 42 43  1  0  0  0  0
 42 44  1  0  0  0  0
 42 45  1  0  0  0  0
M  CHG  1  34   1
M  END
>  <PARENT_CMPD_ID>
CHEMBL501927

>  <STANDARD_TYPE>
IC50

>  <RELATION>
=

>  <STANDARD_VALUE>
18

>  <STANDARD_UNITS>
nM

>  <COMPOUND_KEY>
11

>  <PUBMED_ID>
19428244

>  <JOURNAL>
Bioorg. Med. Chem. Lett.

>  <YEAR>
2009

>  <VOLUME>
19

>  <FIRST_PAGE>
3664

>  <Company>
GSK

>  <idx>
472

>  <Model>
Valid

>  <target>
7.7447276

>  <des_pred_mlr>
7.3480902

>  <RF_Canvas>
8.1631498

>  <DNN_Canvas>
7.9251347

>  <pred_CoMFA>
8.0132999

>  <pred_COMSIA>
8.0746002

>  <pred_abm5>
8.0169306

>  <pred_ff8>
6.0229487

>  <pred_gau6>
7.4110084

>  <CID>
BACE_472

>  <active>
1

>  <des_class_bayes>
1

>  <maacs_class_bayes>
1

>  <radial_class_bayes>
1

>  <dend_class_bayes>
1

>  <molprint_class_bayes>
1

>  <RF_canvas>
1

>  <DNN_canvas>
1

$$$$
CHEMBL401475
  MOE2015           3D

 86 90  0  0  1  0  0  0  0  0999 V2000
   30.1800   11.0120   21.6250 C   0  0  0  0  0  0  0  0  0  0  0  0
   29.8830   12.2680   20.8320 C   0  0  0  0  0  0  0  0  0  0  0  0
   28.4770   12.5640   20.9380 N   0  0  0  0  0  0  0  0  0  0  0  0
   27.8750   13.1810   22.0090 C   0  0  0  0  0  0  0  0  0  0  0  0
   28.5030   14.0400   22.8810 C   0  0  0  0  0  0  0  0  0  0  0  0
   27.7970   14.6950   23.9090 C   0  0  0  0  0  0  0  0  0  0  0  0
   26.4500   14.3620   24.1620 C   0  0  0  0  0  0  0  0  0  0  0  0
   25.8450   13.3870   23.3770 C   0  0  0  0  0  0  0  0  0  0  0  0
   26.5570   12.8690   22.2940 C   0  0  0  0  0  0  0  0  0  0  0  0
   24.4600   12.8250   23.5470 C   0  0  0  0  0  0  0  0  0  0  0  0
   23.4510   13.5060   23.6680 O   0  0  0  0  0  0  0  0  0  0  0  0
   24.4030   11.4460   23.3590 N   0  0  0  0  0  0  0  0  0  0  0  0
   23.1770   10.7020   23.0870 C   0  0  3  0  0  0  0  0  0  0  0  0
   23.3480    9.8280   21.8100 C   0  0  0  0  0  0  0  0  0  0  0  0
   24.1720   10.4240   20.7000 C   0  0  0  0  0  0  0  0  0  0  0  0
   23.7870   11.6070   20.0720 C   0  0  0  0  0  0  0  0  0  0  0  0
   24.5780   12.1670   19.0740 C   0  0  0  0  0  0  0  0  0  0  0  0
   25.7520   11.5410   18.6800 C   0  0  0  0  0  0  0  0  0  0  0  0
   26.1380   10.3560   19.2860 C   0  0  0  0  0  0  0  0  0  0  0  0
   25.3530    9.8000   20.2890 C   0  0  0  0  0  0  0  0  0  0  0  0
   22.7180    9.8280   24.2820 C   0  0  3  0  0  0  0  0  0  0  0  0
   21.4950    9.1360   23.9580 O   0  0  0  0  0  0  0  0  0  0  0  0
   22.6090   10.4570   25.6710 C   0  0  0  0  0  0  0  0  0  0  0  0
   21.1860   10.4020   26.1250 N   0  3  0  0  0  0  0  0  0  0  0  0
   20.5030   11.6880   25.9230 C   0  0  3  0  0  0  0  0  0  0  0  0
   20.5990   12.5830   27.1570 C   0  0  0  0  0  0  0  0  0  0  0  0
   19.5350   13.6660   26.9340 C   0  0  0  0  0  0  0  0  0  0  0  0
   18.5160   12.9030   26.1650 C   0  0  0  0  0  0  0  0  0  0  0  0
   17.2640   13.3270   25.8010 C   0  0  0  0  0  0  0  0  0  0  0  0
   16.5070   12.4830   25.0070 C   0  0  0  0  0  0  0  0  0  0  0  0
   16.9920   11.2280   24.6200 C   0  0  0  0  0  0  0  0  0  0  0  0
   16.1900   10.5160   23.7840 O   0  0  0  0  0  0  0  0  0  0  0  0
   16.1360    9.1250   24.0710 C   0  0  0  0  0  0  0  0  0  0  0  0
   18.2730   10.8210   24.9630 C   0  0  0  0  0  0  0  0  0  0  0  0
   19.0320   11.6870   25.7120 C   0  0  0  0  0  0  0  0  0  0  0  0
   28.4950   15.6870   24.7200 N   0  0  0  0  0  0  0  0  0  0  0  0
   29.7610   16.2200   24.0960 C   0  0  0  0  0  0  0  0  0  0  0  0
   30.2680   17.4430   24.8250 C   0  0  0  0  0  0  0  0  0  0  0  0
   30.6430   17.1290   26.2590 C   0  0  0  0  0  0  0  0  0  0  0  0
   29.4300   16.6800   27.0400 C   0  0  0  0  0  0  0  0  0  0  0  0
   28.7250   15.2060   26.3620 S   0  0  0  0  0  0  0  0  0  0  0  0
   29.7300   14.1700   26.3840 O   0  0  0  0  0  0  0  0  0  0  0  0
   27.4550   15.0030   27.0180 O   0  0  0  0  0  0  0  0  0  0  0  0
   31.2310   10.7290   21.5060 H   0  0  0  0  0  0  0  0  0  0  0  0
   29.5620   10.1740   21.2870 H   0  0  0  0  0  0  0  0  0  0  0  0
   29.9900   11.1580   22.6930 H   0  0  0  0  0  0  0  0  0  0  0  0
   30.1200   12.0810   19.7780 H   0  0  0  0  0  0  0  0  0  0  0  0
   30.5190   13.1010   21.1470 H   0  0  0  0  0  0  0  0  0  0  0  0
   27.8820   12.2580   20.1760 H   0  0  0  0  0  0  0  0  0  0  0  0
   29.5520   14.2400   22.7070 H   0  0  0  0  0  0  0  0  0  0  0  0
   25.9000   14.8370   24.9680 H   0  0  0  0  0  0  0  0  0  0  0  0
   26.0680   12.1710   21.6260 H   0  0  0  0  0  0  0  0  0  0  0  0
   25.2750   10.9240   23.3740 H   0  0  0  0  0  0  0  0  0  0  0  0
   22.3820   11.4280   22.8750 H   0  0  0  0  0  0  0  0  0  0  0  0
   23.8060    8.8720   22.0990 H   0  0  0  0  0  0  0  0  0  0  0  0
   22.3610    9.5700   21.4060 H   0  0  0  0  0  0  0  0  0  0  0  0
   22.8680   12.1120   20.3620 H   0  0  0  0  0  0  0  0  0  0  0  0
   24.2670   13.0910   18.5930 H   0  0  0  0  0  0  0  0  0  0  0  0
   26.3560   11.9710   17.8850 H   0  0  0  0  0  0  0  0  0  0  0  0
   27.0500    9.8540   18.9710 H   0  0  0  0  0  0  0  0  0  0  0  0
   25.6760    8.8700   20.7510 H   0  0  0  0  0  0  0  0  0  0  0  0
   23.4780    9.0410   24.3910 H   0  0  0  0  0  0  0  0  0  0  0  0
   21.6940    8.4590   23.2820 H   0  0  0  0  0  0  0  0  0  0  0  0
   22.9970   11.4770   25.7480 H   0  0  0  0  0  0  0  0  0  0  0  0
   23.1600    9.8450   26.3940 H   0  0  0  0  0  0  0  0  0  0  0  0
   21.0630   10.0280   27.0730 H   0  0  0  0  0  0  0  0  0  0  0  0
   20.7750    9.7030   25.4720 H   0  0  0  0  0  0  0  0  0  0  0  0
   20.9550   12.1780   25.0480 H   0  0  0  0  0  0  0  0  0  0  0  0
   20.3610   12.0190   28.0710 H   0  0  0  0  0  0  0  0  0  0  0  0
   21.5950   13.0160   27.2910 H   0  0  0  0  0  0  0  0  0  0  0  0
   19.9330   14.4890   26.3300 H   0  0  0  0  0  0  0  0  0  0  0  0
   19.1490   14.0490   27.8820 H   0  0  0  0  0  0  0  0  0  0  0  0
   16.8790   14.2950   26.1060 H   0  0  0  0  0  0  0  0  0  0  0  0
   15.5160   12.7940   24.6830 H   0  0  0  0  0  0  0  0  0  0  0  0
   15.2450    8.7160   23.5840 H   0  0  0  0  0  0  0  0  0  0  0  0
   16.0500    8.9310   25.1460 H   0  0  0  0  0  0  0  0  0  0  0  0
   17.0080    8.6100   23.6550 H   0  0  0  0  0  0  0  0  0  0  0  0
   18.6920    9.9120   24.5500 H   0  0  0  0  0  0  0  0  0  0  0  0
   30.5460   15.4550   24.0890 H   0  0  0  0  0  0  0  0  0  0  0  0
   29.5540   16.5210   23.0610 H   0  0  0  0  0  0  0  0  0  0  0  0
   31.1490   17.8330   24.3020 H   0  0  0  0  0  0  0  0  0  0  0  0
   29.5100   18.2360   24.8030 H   0  0  0  0  0  0  0  0  0  0  0  0
   31.0610   18.0280   26.7280 H   0  0  0  0  0  0  0  0  0  0  0  0
   31.4270   16.3630   26.2850 H   0  0  0  0  0  0  0  0  0  0  0  0
   28.6500   17.4480   27.0520 H   0  0  0  0  0  0  0  0  0  0  0  0
   29.7030   16.4570   28.0760 H   0  0  0  0  0  0  0  0  0  0  0  0
  1  2  1  0  0  0  0
  1 44  1  0  0  0  0
  1 45  1  0  0  0  0
  1 46  1  0  0  0  0
  2  3  1  0  0  0  0
  2 47  1  0  0  0  0
  2 48  1  0  0  0  0
  3  4  1  0  0  0  0
  3 49  1  0  0  0  0
  4  5  1  0  0  0  0
  4  9  2  0  0  0  0
  5  6  2  0  0  0  0
  5 50  1  0  0  0  0
  6  7  1  0  0  0  0
  6 36  1  0  0  0  0
  7  8  2  0  0  0  0
  7 51  1  0  0  0  0
  8  9  1  0  0  0  0
  8 10  1  0  0  0  0
  9 52  1  0  0  0  0
 10 11  2  0  0  0  0
 10 12  1  0  0  0  0
 12 13  1  0  0  0  0
 12 53  1  0  0  0  0
 13 14  1  0  0  0  0
 13 21  1  0  0  0  0
 13 54  1  0  0  0  0
 14 15  1  0  0  0  0
 14 55  1  0  0  0  0
 14 56  1  0  0  0  0
 15 16  1  0  0  0  0
 15 20  2  0  0  0  0
 16 17  2  0  0  0  0
 16 57  1  0  0  0  0
 17 18  1  0  0  0  0
 17 58  1  0  0  0  0
 18 19  2  0  0  0  0
 18 59  1  0  0  0  0
 19 20  1  0  0  0  0
 19 60  1  0  0  0  0
 20 61  1  0  0  0  0
 21 22  1  0  0  0  0
 21 23  1  0  0  0  0
 21 62  1  0  0  0  0
 22 63  1  0  0  0  0
 23 24  1  0  0  0  0
 23 64  1  0  0  0  0
 23 65  1  0  0  0  0
 24 25  1  0  0  0  0
 24 66  1  0  0  0  0
 24 67  1  0  0  0  0
 25 26  1  0  0  0  0
 25 35  1  0  0  0  0
 25 68  1  0  0  0  0
 26 27  1  0  0  0  0
 26 69  1  0  0  0  0
 26 70  1  0  0  0  0
 27 28  1  0  0  0  0
 27 71  1  0  0  0  0
 27 72  1  0  0  0  0
 28 29  1  0  0  0  0
 28 35  2  0  0  0  0
 29 30  2  0  0  0  0
 29 73  1  0  0  0  0
 30 31  1  0  0  0  0
 30 74  1  0  0  0  0
 31 32  1  0  0  0  0
 31 34  2  0  0  0  0
 32 33  1  0  0  0  0
 33 75  1  0  0  0  0
 33 76  1  0  0  0  0
 33 77  1  0  0  0  0
 34 35  1  0  0  0  0
 34 78  1  0  0  0  0
 36 37  1  0  0  0  0
 36 41  1  0  0  0  0
 37 38  1  0  0  0  0
 37 79  1  0  0  0  0
 37 80  1  0  0  0  0
 38 39  1  0  0  0  0
 38 81  1  0  0  0  0
 38 82  1  0  0  0  0
 39 40  1  0  0  0  0
 39 83  1  0  0  0  0
 39 84  1  0  0  0  0
 40 41  1  0  0  0  0
 40 85  1  0  0  0  0
 40 86  1  0  0  0  0
 41 42  2  0  0  0  0
 41 43  2  0  0  0  0
M  CHG  1  24   1
M  END
>  <PARENT_CMPD_ID>
CHEMBL401475

>  <STANDARD_TYPE>
IC50

>  <RELATION>
=

>  <STANDARD_VALUE>
18

>  <STANDARD_UNITS>
nM

>  <COMPOUND_KEY>
26

>  <PUBMED_ID>
19428244

>  <JOURNAL>
Bioorg. Med. Chem. Lett.

>  <YEAR>
2009

>  <VOLUME>
19

>  <FIRST_PAGE>
3664

>  <Company>
GSK

>  <idx>
473

>  <Model>
Valid

>  <target>
7.7447276

>  <des_pred_mlr>
7.6079602

>  <RF_Canvas>
7.8843322

>  <DNN_Canvas>
7.4519229

>  <pred_CoMFA>
7.1076999

>  <pred_COMSIA>
7.5430999

>  <pred_abm5>
6.8865199

>  <pred_ff8>
6.7143064

>  <pred_gau6>
6.6239314

>  <CID>
BACE_473

>  <active>
1

>  <des_class_bayes>
1

>  <maacs_class_bayes>
1

>  <radial_class_bayes>
1

>  <dend_class_bayes>
1

>  <molprint_class_bayes>
1

>  <RF_canvas>
1

>  <DNN_canvas>
1

$$$$
CHEMBL570298
  MOE2015           3D

 71 73  0  0  1  0  0  0  0  0999 V2000
   24.2560   13.0420   23.0480 C   0  0  0  0  0  0  0  0  0  0  0  0
   22.4060   10.2570   24.0600 C   0  0  3  0  0  0  0  0  0  0  0  0
   23.4800    9.8560   21.7300 C   0  0  0  0  0  0  0  0  0  0  0  0
   25.4930   10.1750   20.2310 C   0  0  0  0  0  0  0  0  0  0  0  0
   24.2290   12.1620   18.7950 C   0  0  0  0  0  0  0  0  0  0  0  0
   22.0300   11.3490   25.0940 C   0  0  0  0  0  0  0  0  0  0  0  0
   20.3620   11.7200   27.0800 C   0  0  3  0  0  0  0  0  0  0  0  0
   21.2730   12.7450   27.8100 C   0  0  0  0  0  0  0  0  0  0  0  0
   20.5900   13.4990   28.9580 C   0  0  0  0  0  0  0  0  0  0  0  0
   19.2780   12.3060   26.1710 C   0  0  0  0  0  0  0  0  0  0  0  0
   17.2510   13.3040   24.5100 C   0  0  0  0  0  0  0  0  0  0  0  0
   18.3210   11.4620   25.5790 C   0  0  0  0  0  0  0  0  0  0  0  0
   23.6130   13.1300   18.1170 F   0  0  0  0  0  0  0  0  0  0  0  0
   23.5470   11.5020   19.8070 C   0  0  0  0  0  0  0  0  0  0  0  0
   25.5320   11.8420   18.4840 C   0  0  0  0  0  0  0  0  0  0  0  0
   26.1500   10.8430   19.2050 C   0  0  0  0  0  0  0  0  0  0  0  0
   27.4120   10.5220   18.9170 F   0  0  0  0  0  0  0  0  0  0  0  0
   24.1780   10.5080   20.5560 C   0  0  0  0  0  0  0  0  0  0  0  0
   23.0840   10.8810   22.8170 C   0  0  3  0  0  0  0  0  0  0  0  0
   24.2490   11.6740   23.1880 N   0  0  0  0  0  0  0  0  0  0  0  0
   23.2770   13.6860   22.6860 O   0  0  0  0  0  0  0  0  0  0  0  0
   25.5670   13.6930   23.3760 C   0  0  0  0  0  0  0  0  0  0  0  0
   21.2190    9.5450   23.6800 O   0  0  0  0  0  0  0  0  0  0  0  0
   21.2430   10.7480   26.2300 N   0  3  0  0  0  0  0  0  0  0  0  0
   19.5270   12.9120   29.5600 N   0  0  0  0  0  0  0  0  0  0  0  0
   19.1490   13.4200   30.3550 H   0  0  0  0  0  0  0  0  0  0  0  0
   18.8930   11.6880   29.1410 C   0  0  0  0  0  0  0  0  0  0  0  0
   19.7520   10.8520   28.2040 C   0  0  0  0  0  0  0  0  0  0  0  0
   19.2030   13.6640   25.8750 C   0  0  0  0  0  0  0  0  0  0  0  0
   17.2790   11.9370   24.7680 C   0  0  0  0  0  0  0  0  0  0  0  0
   18.2020   14.1550   25.0520 C   0  0  0  0  0  0  0  0  0  0  0  0
   16.2390   10.9750   24.1940 C   0  0  0  0  0  0  0  0  0  0  0  0
   15.6980   10.0400   25.2850 C   0  0  0  0  0  0  0  0  0  0  0  0
   15.0220   11.6820   23.5810 C   0  0  0  0  0  0  0  0  0  0  0  0
   16.8960   10.1340   23.0950 C   0  0  0  0  0  0  0  0  0  0  0  0
   23.0800    9.5340   24.5350 H   0  0  0  0  0  0  0  0  0  0  0  0
   24.1360    9.0950   22.1720 H   0  0  0  0  0  0  0  0  0  0  0  0
   22.5930    9.3280   21.3600 H   0  0  0  0  0  0  0  0  0  0  0  0
   26.0300    9.4050   20.7770 H   0  0  0  0  0  0  0  0  0  0  0  0
   21.3940   12.0990   24.6170 H   0  0  0  0  0  0  0  0  0  0  0  0
   22.9090   11.8290   25.5340 H   0  0  0  0  0  0  0  0  0  0  0  0
   21.6970   13.4790   27.1160 H   0  0  0  0  0  0  0  0  0  0  0  0
   22.1250   12.2210   28.2660 H   0  0  0  0  0  0  0  0  0  0  0  0
   16.4880   13.7510   23.8780 H   0  0  0  0  0  0  0  0  0  0  0  0
   18.3710   10.3920   25.7650 H   0  0  0  0  0  0  0  0  0  0  0  0
   22.5230   11.8000   20.0140 H   0  0  0  0  0  0  0  0  0  0  0  0
   26.0570   12.3610   17.6920 H   0  0  0  0  0  0  0  0  0  0  0  0
   22.3390   11.5460   22.3620 H   0  0  0  0  0  0  0  0  0  0  0  0
   25.0840   11.2030   23.5230 H   0  0  0  0  0  0  0  0  0  0  0  0
   26.3250   12.9630   23.6730 H   0  0  0  0  0  0  0  0  0  0  0  0
   25.4190   14.3980   24.1990 H   0  0  0  0  0  0  0  0  0  0  0  0
   25.9270   14.2300   22.4950 H   0  0  0  0  0  0  0  0  0  0  0  0
   20.7310   10.0590   23.0080 H   0  0  0  0  0  0  0  0  0  0  0  0
   21.8780   10.2200   26.8430 H   0  0  0  0  0  0  0  0  0  0  0  0
   20.6390   10.0350   25.7880 H   0  0  0  0  0  0  0  0  0  0  0  0
   17.9440   11.9640   28.6690 H   0  0  0  0  0  0  0  0  0  0  0  0
   18.6500   11.1180   30.0440 H   0  0  0  0  0  0  0  0  0  0  0  0
   20.5610   10.3930   28.7900 H   0  0  0  0  0  0  0  0  0  0  0  0
   19.1580   10.0160   27.8170 H   0  0  0  0  0  0  0  0  0  0  0  0
   19.9070   14.3900   26.2720 H   0  0  0  0  0  0  0  0  0  0  0  0
   18.1570   15.2190   24.8320 H   0  0  0  0  0  0  0  0  0  0  0  0
   15.2910   10.6090   26.1290 H   0  0  0  0  0  0  0  0  0  0  0  0
   16.4620    9.3630   25.6820 H   0  0  0  0  0  0  0  0  0  0  0  0
   14.8940    9.4020   24.8990 H   0  0  0  0  0  0  0  0  0  0  0  0
   14.5230   12.3330   24.3090 H   0  0  0  0  0  0  0  0  0  0  0  0
   14.2760   10.9580   23.2290 H   0  0  0  0  0  0  0  0  0  0  0  0
   15.2940   12.2910   22.7110 H   0  0  0  0  0  0  0  0  0  0  0  0
   17.7320    9.5370   23.4780 H   0  0  0  0  0  0  0  0  0  0  0  0
   17.2910   10.7660   22.2910 H   0  0  0  0  0  0  0  0  0  0  0  0
   16.1800    9.4360   22.6450 H   0  0  0  0  0  0  0  0  0  0  0  0
   20.9920   14.5670   29.4120 O   0  0  0  0  0  0  0  0  0  0  0  0
  1 20  1  0  0  0  0
  1 21  2  0  0  0  0
  1 22  1  0  0  0  0
  2  6  1  0  0  0  0
  2 19  1  0  0  0  0
  2 23  1  0  0  0  0
  2 36  1  0  0  0  0
  3 18  1  0  0  0  0
  3 19  1  0  0  0  0
  3 37  1  0  0  0  0
  3 38  1  0  0  0  0
  4 16  2  0  0  0  0
  4 18  1  0  0  0  0
  4 39  1  0  0  0  0
  5 13  1  0  0  0  0
  5 14  1  0  0  0  0
  5 15  2  0  0  0  0
  6 24  1  0  0  0  0
  6 40  1  0  0  0  0
  6 41  1  0  0  0  0
  7  8  1  0  0  0  0
  7 10  1  0  0  0  0
  7 24  1  0  0  0  0
  7 28  1  0  0  0  0
  8  9  1  0  0  0  0
  8 42  1  0  0  0  0
  8 43  1  0  0  0  0
  9 25  1  0  0  0  0
  9 71  2  0  0  0  0
 10 12  2  0  0  0  0
 10 29  1  0  0  0  0
 11 30  2  0  0  0  0
 11 31  1  0  0  0  0
 11 44  1  0  0  0  0
 12 30  1  0  0  0  0
 12 45  1  0  0  0  0
 14 18  2  0  0  0  0
 14 46  1  0  0  0  0
 15 16  1  0  0  0  0
 15 47  1  0  0  0  0
 16 17  1  0  0  0  0
 19 20  1  0  0  0  0
 19 48  1  0  0  0  0
 20 49  1  0  0  0  0
 22 50  1  0  0  0  0
 22 51  1  0  0  0  0
 22 52  1  0  0  0  0
 23 53  1  0  0  0  0
 24 54  1  0  0  0  0
 24 55  1  0  0  0  0
 25 26  1  0  0  0  0
 25 27  1  0  0  0  0
 27 28  1  0  0  0  0
 27 56  1  0  0  0  0
 27 57  1  0  0  0  0
 28 58  1  0  0  0  0
 28 59  1  0  0  0  0
 29 31  2  0  0  0  0
 29 60  1  0  0  0  0
 30 32  1  0  0  0  0
 31 61  1  0  0  0  0
 32 33  1  0  0  0  0
 32 34  1  0  0  0  0
 32 35  1  0  0  0  0
 33 62  1  0  0  0  0
 33 63  1  0  0  0  0
 33 64  1  0  0  0  0
 34 65  1  0  0  0  0
 34 66  1  0  0  0  0
 34 67  1  0  0  0  0
 35 68  1  0  0  0  0
 35 69  1  0  0  0  0
 35 70  1  0  0  0  0
M  CHG  1  24   1
M  END
>  <PARENT_CMPD_ID>
CHEMBL570298

>  <STANDARD_TYPE>
IC50

>  <RELATION>
=

>  <STANDARD_VALUE>
18

>  <STANDARD_UNITS>
nM

>  <COMPOUND_KEY>
15, diastereomer

>  <PUBMED_ID>
19811916

>  <JOURNAL>
Bioorg. Med. Chem. Lett.

>  <YEAR>
2009

>  <VOLUME>
19

>  <FIRST_PAGE>
6386

>  <Company>
Elan

>  <idx>
474

>  <Model>
Valid

>  <target>
7.7447276

>  <des_pred_mlr>
6.5038099

>  <RF_Canvas>
7.4747696

>  <DNN_Canvas>
7.1941142

>  <pred_CoMFA>
7.7275

>  <pred_COMSIA>
7.8755002

>  <pred_abm5>
7.5278292

>  <pred_ff8>
7.3123889

>  <pred_gau6>
7.6386967

>  <CID>
BACE_474

>  <active>
1

>  <des_class_bayes>
1

>  <maacs_class_bayes>
1

>  <radial_class_bayes>
1

>  <dend_class_bayes>
1

>  <molprint_class_bayes>
1

>  <RF_canvas>
1

>  <DNN_canvas>
1

$$$$
CHEMBL1210343
  MOE2015           3D

 90 93  0  0  1  0  0  0  0  0999 V2000
   20.9260   12.3020   27.6030 C   0  0  0  0  0  0  0  0  0  0  0  0
   20.2640   11.1570   26.8570 C   0  0  3  0  0  0  0  0  0  0  0  0
   21.2670   10.3660   26.1000 N   0  3  0  0  0  0  0  0  0  0  0  0
   21.8970   11.1270   25.0050 C   0  0  0  0  0  0  0  0  0  0  0  0
   22.4530   10.1390   23.9780 C   0  0  3  0  0  0  0  0  0  0  0  0
   21.3320    9.3440   23.5740 O   0  0  0  0  0  0  0  0  0  0  0  0
   23.1060   10.8440   22.7960 C   0  0  3  0  0  0  0  0  0  0  0  0
   23.4280    9.8950   21.6440 C   0  0  0  0  0  0  0  0  0  0  0  0
   24.3110   10.5370   20.6000 C   0  0  0  0  0  0  0  0  0  0  0  0
   23.9700   11.7390   19.9960 C   0  0  0  0  0  0  0  0  0  0  0  0
   24.8050   12.3030   19.0450 C   0  0  0  0  0  0  0  0  0  0  0  0
   25.9840   11.6730   18.6870 C   0  0  0  0  0  0  0  0  0  0  0  0
   26.3250   10.4770   19.2830 C   0  0  0  0  0  0  0  0  0  0  0  0
   25.4930    9.9130   20.2330 C   0  0  0  0  0  0  0  0  0  0  0  0
   24.3240   11.5430   23.2230 N   0  0  0  0  0  0  0  0  0  0  0  0
   24.3340   12.9010   23.3860 C   0  0  0  0  0  0  0  0  0  0  0  0
   23.3260   13.6080   23.3880 O   0  0  0  0  0  0  0  0  0  0  0  0
   25.6870   13.4610   23.5640 C   0  0  0  0  0  0  0  0  0  0  0  0
   26.7520   12.9530   22.8410 C   0  0  0  0  0  0  0  0  0  0  0  0
   28.0260   13.4740   23.0230 C   0  0  0  0  0  0  0  0  0  0  0  0
   28.2310   14.5110   23.9240 C   0  0  0  0  0  0  0  0  0  0  0  0
   27.1480   15.0100   24.6360 C   0  0  0  0  0  0  0  0  0  0  0  0
   25.8780   14.4890   24.4640 C   0  0  0  0  0  0  0  0  0  0  0  0
   27.2970   16.0860   25.5750 N   0  0  0  0  0  0  0  0  0  0  0  0
   26.4820   17.2510   25.3990 C   0  0  0  0  0  0  0  0  0  0  0  0
   26.6630   18.0220   24.2710 C   0  0  0  0  0  0  0  0  0  0  0  0
   25.8640   19.1370   24.1070 C   0  0  0  0  0  0  0  0  0  0  0  0
   24.9250   19.4590   25.0620 C   0  0  0  0  0  0  0  0  0  0  0  0
   24.7560   18.6790   26.1830 C   0  0  0  0  0  0  0  0  0  0  0  0
   25.5390   17.5590   26.3600 C   0  0  0  0  0  0  0  0  0  0  0  0
   25.4180   16.9340   27.2330 H   0  0  0  0  0  0  0  0  0  0  0  0
   28.6320   16.2090   26.6040 S   0  0  0  0  0  0  0  0  0  0  0  0
   29.7320   17.2750   25.7120 C   0  0  0  0  0  0  0  0  0  0  0  0
   29.2570   14.9140   26.6820 O   0  0  0  0  0  0  0  0  0  0  0  0
   28.2360   16.9430   27.7840 O   0  0  0  0  0  0  0  0  0  0  0  0
   19.1940   11.6850   25.9180 C   0  0  0  0  0  0  0  0  0  0  0  0
   19.1500   12.8440   25.5090 O   0  0  0  0  0  0  0  0  0  0  0  0
   18.2590   10.7320   25.5800 N   0  0  0  0  0  0  0  0  0  0  0  0
   17.1780   11.0790   24.6520 C   0  0  0  0  0  0  0  0  0  0  0  0
   16.9820    9.9360   23.6870 C   0  0  0  0  0  0  0  0  0  0  0  0
   15.8540   10.1920   22.6900 C   0  0  0  0  0  0  0  0  0  0  0  0
   14.5580   10.4610   23.4320 C   0  0  0  0  0  0  0  0  0  0  0  0
   14.7700   11.6410   24.3720 C   0  0  0  0  0  0  0  0  0  0  0  0
   15.8730   11.3210   25.3830 C   0  0  0  0  0  0  0  0  0  0  0  0
   21.6900   11.9060   28.2720 H   0  0  0  0  0  0  0  0  0  0  0  0
   20.1760   12.8380   28.1850 H   0  0  0  0  0  0  0  0  0  0  0  0
   21.3860   12.9840   26.8880 H   0  0  0  0  0  0  0  0  0  0  0  0
   19.7950   10.5010   27.5910 H   0  0  0  0  0  0  0  0  0  0  0  0
   20.8080    9.5570   25.7070 H   0  0  0  0  0  0  0  0  0  0  0  0
   21.9890   10.0660   26.7400 H   0  0  0  0  0  0  0  0  0  0  0  0
   22.7070   11.7380   25.4020 H   0  0  0  0  0  0  0  0  0  0  0  0
   21.1550   11.7700   24.5310 H   0  0  0  0  0  0  0  0  0  0  0  0
   23.2470    9.5260   24.4060 H   0  0  0  0  0  0  0  0  0  0  0  0
   20.6720    9.9370   23.2080 H   0  0  0  0  0  0  0  0  0  0  0  0
   22.3790   11.5660   22.4250 H   0  0  0  0  0  0  0  0  0  0  0  0
   22.4950    9.5870   21.1720 H   0  0  0  0  0  0  0  0  0  0  0  0
   23.9390    9.0190   22.0440 H   0  0  0  0  0  0  0  0  0  0  0  0
   23.0510   12.2360   20.2680 H   0  0  0  0  0  0  0  0  0  0  0  0
   24.5340   13.2400   18.5800 H   0  0  0  0  0  0  0  0  0  0  0  0
   26.6330   12.1150   17.9460 H   0  0  0  0  0  0  0  0  0  0  0  0
   27.2430    9.9800   19.0070 H   0  0  0  0  0  0  0  0  0  0  0  0
   25.7670    8.9760   20.6940 H   0  0  0  0  0  0  0  0  0  0  0  0
   25.1660   11.0140   23.3990 H   0  0  0  0  0  0  0  0  0  0  0  0
   26.5920   12.1510   22.1350 H   0  0  0  0  0  0  0  0  0  0  0  0
   28.8580   13.0730   22.4640 H   0  0  0  0  0  0  0  0  0  0  0  0
   29.2190   14.9230   24.0690 H   0  0  0  0  0  0  0  0  0  0  0  0
   25.0450   14.8830   25.0280 H   0  0  0  0  0  0  0  0  0  0  0  0
   27.4090   17.7620   23.5350 H   0  0  0  0  0  0  0  0  0  0  0  0
   25.9760   19.7570   23.2290 H   0  0  0  0  0  0  0  0  0  0  0  0
   24.3120   20.3380   24.9290 H   0  0  0  0  0  0  0  0  0  0  0  0
   23.8090   19.0150   27.1230 O   0  0  0  0  0  0  0  0  0  0  0  0
   23.7280   18.1360   28.2330 C   0  0  0  0  0  0  0  0  0  0  0  0
   22.9550   18.4860   28.9170 H   0  0  0  0  0  0  0  0  0  0  0  0
   24.6880   18.1150   28.7500 H   0  0  0  0  0  0  0  0  0  0  0  0
   23.4800   17.1340   27.8850 H   0  0  0  0  0  0  0  0  0  0  0  0
   30.0680   16.7730   24.8040 H   0  0  0  0  0  0  0  0  0  0  0  0
   30.5940   17.5120   26.3360 H   0  0  0  0  0  0  0  0  0  0  0  0
   29.2110   18.1950   25.4470 H   0  0  0  0  0  0  0  0  0  0  0  0
   18.3170    9.8010   25.9680 H   0  0  0  0  0  0  0  0  0  0  0  0
   17.4570   11.9950   24.1300 H   0  0  0  0  0  0  0  0  0  0  0  0
   16.7470    9.0360   24.2560 H   0  0  0  0  0  0  0  0  0  0  0  0
   17.9090    9.7840   23.1330 H   0  0  0  0  0  0  0  0  0  0  0  0
   15.7300    9.3170   22.0520 H   0  0  0  0  0  0  0  0  0  0  0  0
   16.1040   11.0570   22.0750 H   0  0  0  0  0  0  0  0  0  0  0  0
   14.2750    9.5800   24.0080 H   0  0  0  0  0  0  0  0  0  0  0  0
   13.7690   10.6980   22.7180 H   0  0  0  0  0  0  0  0  0  0  0  0
   13.8420   11.8480   24.9050 H   0  0  0  0  0  0  0  0  0  0  0  0
   15.0580   12.5170   23.7910 H   0  0  0  0  0  0  0  0  0  0  0  0
   15.9910   12.1600   26.0680 H   0  0  0  0  0  0  0  0  0  0  0  0
   15.6010   10.4280   25.9460 H   0  0  0  0  0  0  0  0  0  0  0  0
  1  2  1  0  0  0  0
  1 45  1  0  0  0  0
  1 46  1  0  0  0  0
  1 47  1  0  0  0  0
  2  3  1  0  0  0  0
  2 36  1  0  0  0  0
  2 48  1  0  0  0  0
  3  4  1  0  0  0  0
  3 49  1  0  0  0  0
  3 50  1  0  0  0  0
  4  5  1  0  0  0  0
  4 51  1  0  0  0  0
  4 52  1  0  0  0  0
  5  6  1  0  0  0  0
  5  7  1  0  0  0  0
  5 53  1  0  0  0  0
  6 54  1  0  0  0  0
  7  8  1  0  0  0  0
  7 15  1  0  0  0  0
  7 55  1  0  0  0  0
  8  9  1  0  0  0  0
  8 56  1  0  0  0  0
  8 57  1  0  0  0  0
  9 10  1  0  0  0  0
  9 14  2  0  0  0  0
 10 11  2  0  0  0  0
 10 58  1  0  0  0  0
 11 12  1  0  0  0  0
 11 59  1  0  0  0  0
 12 13  2  0  0  0  0
 12 60  1  0  0  0  0
 13 14  1  0  0  0  0
 13 61  1  0  0  0  0
 14 62  1  0  0  0  0
 15 16  1  0  0  0  0
 15 63  1  0  0  0  0
 16 17  2  0  0  0  0
 16 18  1  0  0  0  0
 18 19  1  0  0  0  0
 18 23  2  0  0  0  0
 19 20  2  0  0  0  0
 19 64  1  0  0  0  0
 20 21  1  0  0  0  0
 20 65  1  0  0  0  0
 21 22  2  0  0  0  0
 21 66  1  0  0  0  0
 22 23  1  0  0  0  0
 22 24  1  0  0  0  0
 23 67  1  0  0  0  0
 24 25  1  0  0  0  0
 24 32  1  0  0  0  0
 25 26  1  0  0  0  0
 25 30  2  0  0  0  0
 26 27  2  0  0  0  0
 26 68  1  0  0  0  0
 27 28  1  0  0  0  0
 27 69  1  0  0  0  0
 28 29  2  0  0  0  0
 28 70  1  0  0  0  0
 29 30  1  0  0  0  0
 29 71  1  0  0  0  0
 30 31  1  0  0  0  0
 32 33  1  0  0  0  0
 32 34  2  0  0  0  0
 32 35  2  0  0  0  0
 33 76  1  0  0  0  0
 33 77  1  0  0  0  0
 33 78  1  0  0  0  0
 36 37  2  0  0  0  0
 36 38  1  0  0  0  0
 38 39  1  0  0  0  0
 38 79  1  0  0  0  0
 39 40  1  0  0  0  0
 39 44  1  0  0  0  0
 39 80  1  0  0  0  0
 40 41  1  0  0  0  0
 40 81  1  0  0  0  0
 40 82  1  0  0  0  0
 41 42  1  0  0  0  0
 41 83  1  0  0  0  0
 41 84  1  0  0  0  0
 42 43  1  0  0  0  0
 42 85  1  0  0  0  0
 42 86  1  0  0  0  0
 43 44  1  0  0  0  0
 43 87  1  0  0  0  0
 43 88  1  0  0  0  0
 44 89  1  0  0  0  0
 44 90  1  0  0  0  0
 71 72  1  0  0  0  0
 72 73  1  0  0  0  0
 72 74  1  0  0  0  0
 72 75  1  0  0  0  0
M  CHG  1   3   1
M  END
>  <PARENT_CMPD_ID>
CHEMBL1210343

>  <STANDARD_TYPE>
IC50

>  <RELATION>
=

>  <STANDARD_VALUE>
18

>  <STANDARD_UNITS>
nM

>  <COMPOUND_KEY>
22

>  <PUBMED_ID>
20579874

>  <JOURNAL>
Bioorg. Med. Chem. Lett.

>  <YEAR>
2010

>  <VOLUME>
20

>  <FIRST_PAGE>
4639

>  <Company>
GSK

>  <idx>
475

>  <Model>
Valid

>  <target>
7.7447276

>  <des_pred_mlr>
7.6771998

>  <RF_Canvas>
7.933814

>  <DNN_Canvas>
7.3932133

>  <pred_CoMFA>
7.9088001

>  <pred_COMSIA>
8.4791002

>  <pred_abm5>
7.7847662

>  <pred_ff8>
8.116024

>  <pred_gau6>
7.9949369

>  <CID>
BACE_475

>  <active>
1

>  <des_class_bayes>
1

>  <maacs_class_bayes>
1

>  <radial_class_bayes>
1

>  <dend_class_bayes>
1

>  <molprint_class_bayes>
1

>  <RF_canvas>
1

>  <DNN_canvas>
1

$$$$
22698785_26
  MOE2015           3D

 86 88  0  0  1  0  0  0  0  0999 V2000
   28.1570   16.7930   28.2080 O   0  0  0  0  0  0  0  0  0  0  0  0
   28.4640   16.1110   26.9720 S   0  0  0  0  0  0  0  0  0  0  0  0
   29.2560   14.9020   27.0250 O   0  0  0  0  0  0  0  0  0  0  0  0
   29.2780   17.2900   25.9140 C   0  0  0  0  0  0  0  0  0  0  0  0
   30.2420   17.5320   26.3700 H   0  0  0  0  0  0  0  0  0  0  0  0
   28.6720   18.1950   25.8470 H   0  0  0  0  0  0  0  0  0  0  0  0
   29.4430   16.8600   24.9270 H   0  0  0  0  0  0  0  0  0  0  0  0
   27.0060   15.8450   26.1440 N   0  0  0  0  0  0  0  0  0  0  0  0
   26.0360   16.9560   26.1090 C   0  0  0  0  0  0  0  0  0  0  0  0
   26.3890   17.8300   26.6640 H   0  0  0  0  0  0  0  0  0  0  0  0
   25.0930   16.6470   26.5700 H   0  0  0  0  0  0  0  0  0  0  0  0
   25.8520   17.2810   25.0800 H   0  0  0  0  0  0  0  0  0  0  0  0
   26.8740   14.8200   25.1470 C   0  0  0  0  0  0  0  0  0  0  0  0
   27.9570   14.3450   24.4140 C   0  0  0  0  0  0  0  0  0  0  0  0
   28.9700   14.6870   24.5970 H   0  0  0  0  0  0  0  0  0  0  0  0
   27.7730   13.4130   23.4050 C   0  0  0  0  0  0  0  0  0  0  0  0
   25.6020   14.3090   24.8780 C   0  0  0  0  0  0  0  0  0  0  0  0
   24.7410   14.6350   25.4570 H   0  0  0  0  0  0  0  0  0  0  0  0
   25.4270   13.3530   23.8880 C   0  0  0  0  0  0  0  0  0  0  0  0
   26.5080   12.9310   23.1270 C   0  0  0  0  0  0  0  0  0  0  0  0
   26.3660   12.2110   22.3300 H   0  0  0  0  0  0  0  0  0  0  0  0
   24.0960   12.7520   23.6470 C   0  0  0  0  0  0  0  0  0  0  0  0
   23.0740   13.4190   23.6950 O   0  0  0  0  0  0  0  0  0  0  0  0
   24.1450   11.4050   23.3790 N   0  0  0  0  0  0  0  0  0  0  0  0
   25.0290   10.9170   23.4810 H   0  0  0  0  0  0  0  0  0  0  0  0
   23.0170   10.6030   22.9210 C   0  0  3  0  0  0  0  0  0  0  0  0
   22.2790   11.2770   22.4650 H   0  0  0  0  0  0  0  0  0  0  0  0
   22.3900    9.8410   24.1000 C   0  0  3  0  0  0  0  0  0  0  0  0
   23.1380    9.1840   24.5600 H   0  0  0  0  0  0  0  0  0  0  0  0
   21.8610   10.8110   25.1590 C   0  0  0  0  0  0  0  0  0  0  0  0
   21.1140   11.4760   24.7160 H   0  0  0  0  0  0  0  0  0  0  0  0
   22.6450   11.3950   25.6470 H   0  0  0  0  0  0  0  0  0  0  0  0
   21.1900   10.0150   26.2360 N   0  3  0  0  0  0  0  0  0  0  0  0
   21.8880    9.5530   26.8310 H   0  0  0  0  0  0  0  0  0  0  0  0
   20.6970    9.2480   25.7490 H   0  0  0  0  0  0  0  0  0  0  0  0
   20.2210   10.7740   27.0810 C   0  0  0  0  0  0  0  0  0  0  0  0
   20.7950   11.5620   27.5800 H   0  0  0  0  0  0  0  0  0  0  0  0
   19.8720   10.0770   27.8510 H   0  0  0  0  0  0  0  0  0  0  0  0
   19.0490   11.3230   26.3240 C   0  0  0  0  0  0  0  0  0  0  0  0
   18.1820   10.4680   25.6420 C   0  0  0  0  0  0  0  0  0  0  0  0
   18.3360    9.3910   25.6880 H   0  0  0  0  0  0  0  0  0  0  0  0
   17.1080   10.9580   24.8940 C   0  0  0  0  0  0  0  0  0  0  0  0
   16.2240    9.9690   24.1710 C   0  0  0  0  0  0  0  0  0  0  0  0
   16.8820    9.2130   23.7210 H   0  0  0  0  0  0  0  0  0  0  0  0
   15.3010    9.2640   25.1560 C   0  0  0  0  0  0  0  0  0  0  0  0
   14.6310    9.9740   25.6560 H   0  0  0  0  0  0  0  0  0  0  0  0
   15.8650    8.7400   25.9360 H   0  0  0  0  0  0  0  0  0  0  0  0
   16.9010   12.3340   24.8650 C   0  0  0  0  0  0  0  0  0  0  0  0
   14.6800    8.5200   24.6460 H   0  0  0  0  0  0  0  0  0  0  0  0
   16.0710   12.7680   24.3130 H   0  0  0  0  0  0  0  0  0  0  0  0
   17.7490   13.1950   25.5480 C   0  0  0  0  0  0  0  0  0  0  0  0
   15.4100   10.5570   23.0260 C   0  0  0  0  0  0  0  0  0  0  0  0
   17.5710   14.2670   25.5110 H   0  0  0  0  0  0  0  0  0  0  0  0
   18.8180   12.6940   26.2730 C   0  0  0  0  0  0  0  0  0  0  0  0
   14.6420   11.2550   23.3800 H   0  0  0  0  0  0  0  0  0  0  0  0
   19.4680   13.3940   26.7950 H   0  0  0  0  0  0  0  0  0  0  0  0
   21.3060    9.0050   23.6800 O   0  0  0  0  0  0  0  0  0  0  0  0
   14.8940    9.7630   22.4750 H   0  0  0  0  0  0  0  0  0  0  0  0
   20.7740    9.4820   23.0140 H   0  0  0  0  0  0  0  0  0  0  0  0
   23.5310    9.6430   21.8320 C   0  0  0  0  0  0  0  0  0  0  0  0
   16.0510   11.0880   22.3130 H   0  0  0  0  0  0  0  0  0  0  0  0
   22.7090    9.1080   21.3460 H   0  0  0  0  0  0  0  0  0  0  0  0
   24.2150    8.9130   22.2850 H   0  0  0  0  0  0  0  0  0  0  0  0
   24.2250   10.4190   20.8550 O   0  0  0  0  0  0  0  0  0  0  0  0
   25.1550    9.6830   20.0720 C   0  0  0  0  0  0  0  0  0  0  0  0
   24.8410    9.7570   19.0260 H   0  0  0  0  0  0  0  0  0  0  0  0
   25.1800    8.6210   20.3430 H   0  0  0  0  0  0  0  0  0  0  0  0
   26.5150   10.3340   20.2610 C   0  0  0  0  0  0  0  0  0  0  0  0
   26.7790   10.2650   21.3230 H   0  0  0  0  0  0  0  0  0  0  0  0
   26.4420   11.4030   20.0300 H   0  0  0  0  0  0  0  0  0  0  0  0
   27.5900    9.6810   19.4260 C   0  0  0  0  0  0  0  0  0  0  0  0
   27.4060    9.8510   18.3590 H   0  0  0  0  0  0  0  0  0  0  0  0
   27.5510    8.5950   19.5800 H   0  0  0  0  0  0  0  0  0  0  0  0
   29.3150   11.5580   19.3100 C   0  0  0  0  0  0  0  0  0  0  0  0
   28.4490   12.0370   18.8380 H   0  0  0  0  0  0  0  0  0  0  0  0
   30.0810   11.4710   18.5290 H   0  0  0  0  0  0  0  0  0  0  0  0
   28.9800   10.1590   19.8130 C   0  0  0  0  0  0  0  0  0  0  0  0
   29.1110   10.0720   20.8990 H   0  0  0  0  0  0  0  0  0  0  0  0
   29.7070    9.4630   19.3740 H   0  0  0  0  0  0  0  0  0  0  0  0
   29.8620   12.4400   20.4180 C   0  0  0  0  0  0  0  0  0  0  0  0
   30.6670   11.9460   20.9710 H   0  0  0  0  0  0  0  0  0  0  0  0
   30.2680   13.3620   19.9890 H   0  0  0  0  0  0  0  0  0  0  0  0
   28.7940   12.8420   21.3080 N   0  0  0  0  0  0  0  0  0  0  0  0
   27.9220   13.1380   20.8860 H   0  0  0  0  0  0  0  0  0  0  0  0
   28.9450   12.9040   22.6690 C   0  0  0  0  0  0  0  0  0  0  0  0
   29.9270   12.5330   23.2940 O   0  0  0  0  0  0  0  0  0  0  0  0
  1  2  2  0  0  0  0
  2  3  2  0  0  0  0
  2  4  1  0  0  0  0
  2  8  1  0  0  0  0
  4  5  1  0  0  0  0
  4  6  1  0  0  0  0
  4  7  1  0  0  0  0
  8  9  1  0  0  0  0
  8 13  1  0  0  0  0
  9 10  1  0  0  0  0
  9 11  1  0  0  0  0
  9 12  1  0  0  0  0
 13 14  2  0  0  0  0
 13 17  1  0  0  0  0
 14 15  1  0  0  0  0
 14 16  1  0  0  0  0
 16 20  2  0  0  0  0
 16 85  1  0  0  0  0
 17 18  1  0  0  0  0
 17 19  2  0  0  0  0
 19 20  1  0  0  0  0
 19 22  1  0  0  0  0
 20 21  1  0  0  0  0
 22 23  2  0  0  0  0
 22 24  1  0  0  0  0
 24 25  1  0  0  0  0
 24 26  1  0  0  0  0
 26 27  1  0  0  0  0
 26 28  1  0  0  0  0
 26 60  1  0  0  0  0
 28 29  1  0  0  0  0
 28 30  1  0  0  0  0
 28 57  1  0  0  0  0
 30 31  1  0  0  0  0
 30 32  1  0  0  0  0
 30 33  1  0  0  0  0
 33 34  1  0  0  0  0
 33 35  1  0  0  0  0
 33 36  1  0  0  0  0
 36 37  1  0  0  0  0
 36 38  1  0  0  0  0
 36 39  1  0  0  0  0
 39 40  1  0  0  0  0
 39 54  2  0  0  0  0
 40 41  1  0  0  0  0
 40 42  2  0  0  0  0
 42 43  1  0  0  0  0
 42 48  1  0  0  0  0
 43 44  1  0  0  0  0
 43 45  1  0  0  0  0
 43 52  1  0  0  0  0
 45 46  1  0  0  0  0
 45 47  1  0  0  0  0
 45 49  1  0  0  0  0
 48 50  1  0  0  0  0
 48 51  2  0  0  0  0
 51 53  1  0  0  0  0
 51 54  1  0  0  0  0
 52 55  1  0  0  0  0
 52 58  1  0  0  0  0
 52 61  1  0  0  0  0
 54 56  1  0  0  0  0
 57 59  1  0  0  0  0
 60 62  1  0  0  0  0
 60 63  1  0  0  0  0
 60 64  1  0  0  0  0
 64 65  1  0  0  0  0
 65 66  1  0  0  0  0
 65 67  1  0  0  0  0
 65 68  1  0  0  0  0
 68 69  1  0  0  0  0
 68 70  1  0  0  0  0
 68 71  1  0  0  0  0
 71 72  1  0  0  0  0
 71 73  1  0  0  0  0
 71 77  1  0  0  0  0
 74 75  1  0  0  0  0
 74 76  1  0  0  0  0
 74 77  1  0  0  0  0
 74 80  1  0  0  0  0
 77 78  1  0  0  0  0
 77 79  1  0  0  0  0
 80 81  1  0  0  0  0
 80 82  1  0  0  0  0
 80 83  1  0  0  0  0
 83 84  1  0  0  0  0
 83 85  1  0  0  0  0
 85 86  2  0  0  0  0
M  CHG  1  33   1
M  END
>  <PARENT_CMPD_ID>
22698785_26

>  <STANDARD_TYPE>
IC50

>  <RELATION>
=

>  <STANDARD_VALUE>
18

>  <STANDARD_UNITS>
nM

>  <COMPOUND_KEY>
26

>  <PUBMED_ID>
22698785

>  <JOURNAL>
Bioorg. Med. Chem.

>  <YEAR>
2012

>  <VOLUME>
20

>  <FIRST_PAGE>
4377

>  <Company>
Medivir

>  <idx>
476

>  <Model>
Valid

>  <target>
7.7447276

>  <des_pred_mlr>
6.9459801

>  <RF_Canvas>
7.1545124

>  <DNN_Canvas>
7.1786413

>  <pred_CoMFA>
6.6209998

>  <pred_COMSIA>
7.1557999

>  <pred_abm5>
6.5583

>  <pred_ff8>
8.454381

>  <pred_gau6>
6.7040586

>  <CID>
BACE_476

>  <active>
1

>  <des_class_bayes>
1

>  <maacs_class_bayes>
1

>  <radial_class_bayes>
0

>  <dend_class_bayes>
1

>  <molprint_class_bayes>
1

>  <RF_canvas>
1

>  <DNN_canvas>
1

$$$$
23537249_(R)-45
  MOE2015           3D

 49 52  0  0  1  0  0  0  0  0999 V2000
   25.0860   11.0810   19.8700 C   0  0  0  0  0  0  0  0  0  0  0  0
   24.5810   11.2000   18.5810 C   0  0  0  0  0  0  0  0  0  0  0  0
   23.2150   11.2390   18.3640 C   0  0  0  0  0  0  0  0  0  0  0  0
   22.3210   11.1500   19.4290 C   0  0  0  0  0  0  0  0  0  0  0  0
   22.8050   11.0340   20.7330 C   0  0  0  0  0  0  0  0  0  0  0  0
   24.1860   10.9800   20.9290 C   0  0  0  0  0  0  0  0  0  0  0  0
   20.8550   11.2340   19.1340 C   0  0  0  0  0  0  0  0  0  0  0  0
   19.9840   10.5940   20.2130 C   0  0  0  0  0  0  0  0  0  0  0  0
   20.3970   11.1600   21.5800 C   0  0  0  0  0  0  0  0  0  0  0  0
   21.8820   10.9640   21.9350 C   0  0  3  0  0  0  0  0  0  0  0  0
   26.5150   11.1160   20.1310 C   0  0  0  0  0  0  0  0  0  0  0  0
   22.2690   12.0040   22.9800 C   0  0  0  0  0  0  0  0  0  0  0  0
   22.5660   11.3140   24.1150 N   0  0  0  0  0  0  0  0  0  0  0  0
   22.4170    9.9960   23.8720 C   0  0  0  0  0  0  0  0  0  0  0  0
   22.0360    9.6790   22.6750 N   0  0  0  0  0  0  0  0  0  0  0  0
   22.3180   13.2130   22.8150 O   0  0  0  0  0  0  0  0  0  0  0  0
   22.9800   11.9340   25.3480 C   0  0  0  0  0  0  0  0  0  0  0  0
   22.6570    9.0760   24.8310 N   0  0  0  0  0  0  0  0  0  0  0  0
   27.3260   12.1000   19.5540 C   0  0  0  0  0  0  0  0  0  0  0  0
   28.6870   12.1740   19.8340 C   0  0  0  0  0  0  0  0  0  0  0  0
   29.2940   12.9510   19.3760 H   0  0  0  0  0  0  0  0  0  0  0  0
   29.2630   11.2640   20.7070 C   0  0  0  0  0  0  0  0  0  0  0  0
   28.4680   10.2820   21.2870 C   0  0  0  0  0  0  0  0  0  0  0  0
   27.1070   10.2020   20.9980 C   0  0  0  0  0  0  0  0  0  0  0  0
   26.5060    9.4170   21.4560 H   0  0  0  0  0  0  0  0  0  0  0  0
   18.5240   10.9680   19.9390 C   0  0  0  0  0  0  0  0  0  0  0  0
   20.0990    9.0680   20.1660 C   0  0  0  0  0  0  0  0  0  0  0  0
   25.2490   11.2690   17.7250 H   0  0  0  0  0  0  0  0  0  0  0  0
   22.8470   11.3420   17.3450 H   0  0  0  0  0  0  0  0  0  0  0  0
   24.5730   10.8940   21.9440 H   0  0  0  0  0  0  0  0  0  0  0  0
   20.6420   10.7620   18.1650 H   0  0  0  0  0  0  0  0  0  0  0  0
   20.6050   12.2990   19.0270 H   0  0  0  0  0  0  0  0  0  0  0  0
   19.7620   10.7350   22.3700 H   0  0  0  0  0  0  0  0  0  0  0  0
   20.1700   12.2370   21.5800 H   0  0  0  0  0  0  0  0  0  0  0  0
   23.0040   13.0230   25.2570 H   0  0  0  0  0  0  0  0  0  0  0  0
   22.5360    8.0990   24.5970 H   0  0  0  0  0  0  0  0  0  0  0  0
   23.9750   11.5650   25.6120 H   0  0  0  0  0  0  0  0  0  0  0  0
   22.9490    9.3080   25.7690 H   0  0  0  0  0  0  0  0  0  0  0  0
   26.8970   12.8460   18.8860 H   0  0  0  0  0  0  0  0  0  0  0  0
   22.2850   11.6450   26.1410 H   0  0  0  0  0  0  0  0  0  0  0  0
   30.3250   11.3310   20.9290 H   0  0  0  0  0  0  0  0  0  0  0  0
   18.3760   12.0540   19.9580 H   0  0  0  0  0  0  0  0  0  0  0  0
   17.8560   10.5320   20.6910 H   0  0  0  0  0  0  0  0  0  0  0  0
   18.1970   10.6090   18.9570 H   0  0  0  0  0  0  0  0  0  0  0  0
   21.1270    8.7120   20.2800 H   0  0  0  0  0  0  0  0  0  0  0  0
   19.7310    8.6740   19.2110 H   0  0  0  0  0  0  0  0  0  0  0  0
   19.5020    8.6060   20.9620 H   0  0  0  0  0  0  0  0  0  0  0  0
   29.0420    9.3500   22.1950 C   0  0  0  0  0  0  0  0  0  0  0  0
   29.4950    8.5880   22.9420 N   0  0  0  0  0  0  0  0  0  0  0  0
  1  2  1  0  0  0  0
  1  6  2  0  0  0  0
  1 11  1  0  0  0  0
  2  3  2  0  0  0  0
  2 28  1  0  0  0  0
  3  4  1  0  0  0  0
  3 29  1  0  0  0  0
  4  5  2  0  0  0  0
  4  7  1  0  0  0  0
  5  6  1  0  0  0  0
  5 10  1  0  0  0  0
  6 30  1  0  0  0  0
  7  8  1  0  0  0  0
  7 31  1  0  0  0  0
  7 32  1  0  0  0  0
  8  9  1  0  0  0  0
  8 26  1  0  0  0  0
  8 27  1  0  0  0  0
  9 10  1  0  0  0  0
  9 33  1  0  0  0  0
  9 34  1  0  0  0  0
 10 12  1  0  0  0  0
 10 15  1  0  0  0  0
 11 19  1  0  0  0  0
 11 24  2  0  0  0  0
 12 13  1  0  0  0  0
 12 16  2  0  0  0  0
 13 14  1  0  0  0  0
 13 17  1  0  0  0  0
 14 15  2  0  0  0  0
 14 18  1  0  0  0  0
 17 35  1  0  0  0  0
 17 37  1  0  0  0  0
 17 40  1  0  0  0  0
 18 36  1  0  0  0  0
 18 38  1  0  0  0  0
 19 20  2  0  0  0  0
 19 39  1  0  0  0  0
 20 21  1  0  0  0  0
 20 22  1  0  0  0  0
 22 23  2  0  0  0  0
 22 41  1  0  0  0  0
 23 24  1  0  0  0  0
 23 48  1  0  0  0  0
 24 25  1  0  0  0  0
 26 42  1  0  0  0  0
 26 43  1  0  0  0  0
 26 44  1  0  0  0  0
 27 45  1  0  0  0  0
 27 46  1  0  0  0  0
 27 47  1  0  0  0  0
 48 49  3  0  0  0  0
M  END
>  <PARENT_CMPD_ID>
23537249_(R)-45

>  <STANDARD_TYPE>
IC50

>  <RELATION>
=

>  <STANDARD_VALUE>
0.017999999

>  <STANDARD_UNITS>
uM

>  <COMPOUND_KEY>
(R)-45

>  <PUBMED_ID>
23537249

>  <JOURNAL>
J.Med.Chem.

>  <YEAR>
2013

>  <VOLUME>
56

>  <FIRST_PAGE>
3379

>  <Company>
Array

>  <idx>
477

>  <Model>
Valid

>  <target>
7.7447276

>  <des_pred_mlr>
7.1387701

>  <RF_Canvas>
7.2445593

>  <DNN_Canvas>
7.3284402

>  <pred_CoMFA>
7.0135999

>  <pred_COMSIA>
7.0019002

>  <pred_abm5>
7.1518421

>  <pred_ff8>
5.858387

>  <pred_gau6>
7.0888548

>  <CID>
BACE_477

>  <active>
1

>  <des_class_bayes>
0

>  <maacs_class_bayes>
0

>  <radial_class_bayes>
1

>  <dend_class_bayes>
1

>  <molprint_class_bayes>
1

>  <RF_canvas>
1

>  <DNN_canvas>
1

$$$$
23981898_17c
  MOE2015           3D

 72 74  0  0  1  0  0  0  0  0999 V2000
   28.6330    9.0450   21.0070 F   0  0  0  0  0  0  0  0  0  0  0  0
   29.2820   10.2140   20.8610 C   0  0  0  0  0  0  0  0  0  0  0  0
   30.0810   10.3570   21.9340 F   0  0  0  0  0  0  0  0  0  0  0  0
   30.0740   10.1140   19.7820 F   0  0  0  0  0  0  0  0  0  0  0  0
   28.3070   11.3690   20.7480 C   0  0  3  0  0  0  0  0  0  0  0  0
   27.5270   11.1970   19.5520 O   0  0  0  0  0  0  0  0  0  0  0  0
   26.1660   11.2280   19.7220 C   0  0  0  0  0  0  0  0  0  0  0  0
   25.4370   12.0360   18.8440 C   0  0  0  0  0  0  0  0  0  0  0  0
   24.0500   12.0560   18.9770 C   0  0  0  0  0  0  0  0  0  0  0  0
   23.3940   11.3130   19.9510 C   0  0  0  0  0  0  0  0  0  0  0  0
   24.1200   10.5080   20.8260 C   0  0  0  0  0  0  0  0  0  0  0  0
   25.5090   10.4460   20.6790 C   0  0  0  0  0  0  0  0  0  0  0  0
   23.4380    9.7800   21.9610 C   0  0  0  0  0  0  0  0  0  0  0  0
   22.8690   10.7410   23.0230 C   0  0  3  0  0  0  0  0  0  0  0  0
   22.1790   10.0050   24.1940 C   0  0  3  0  0  0  0  0  0  0  0  0
   21.5270   10.9790   25.2030 C   0  0  3  0  0  0  0  0  0  0  0  0
   22.5120   11.9630   25.8120 C   0  0  0  0  0  0  0  0  0  0  0  0
   23.2530   13.0150   24.5450 S   0  0  0  0  0  0  0  0  0  0  0  0
   23.9600   11.6630   23.5720 C   0  0  0  0  0  0  0  0  0  0  0  0
   22.1450   13.6110   23.7320 O   0  0  0  0  0  0  0  0  0  0  0  0
   20.9060   10.1320   26.3010 N   0  3  0  0  0  0  0  0  0  0  0  0
   19.8930   10.7900   27.1830 C   0  0  0  0  0  0  0  0  0  0  0  0
   18.7450   11.4200   26.4530 C   0  0  0  0  0  0  0  0  0  0  0  0
   17.8490   10.6300   25.7280 C   0  0  0  0  0  0  0  0  0  0  0  0
   16.7790   11.1850   25.0170 C   0  0  0  0  0  0  0  0  0  0  0  0
   16.6350   12.5710   25.0470 C   0  0  0  0  0  0  0  0  0  0  0  0
   17.5210   13.3710   25.7600 C   0  0  0  0  0  0  0  0  0  0  0  0
   18.5700   12.8000   26.4620 C   0  0  0  0  0  0  0  0  0  0  0  0
   15.8570   10.2640   24.2410 C   0  0  0  0  0  0  0  0  0  0  0  0
   16.4880    9.6920   23.5460 H   0  0  0  0  0  0  0  0  0  0  0  0
   15.1550    9.2800   25.1720 C   0  0  0  0  0  0  0  0  0  0  0  0
   14.7990   10.9670   23.3980 C   0  0  0  0  0  0  0  0  0  0  0  0
   21.1530    9.1190   23.7360 O   0  0  0  0  0  0  0  0  0  0  0  0
   23.3230   12.8240   18.1590 F   0  0  0  0  0  0  0  0  0  0  0  0
   26.0770   12.7980   17.8780 N   0  0  0  0  0  0  0  0  0  0  0  0
   29.0870   12.6780   20.6430 C   0  0  0  0  0  0  0  0  0  0  0  0
   28.1660   13.7680   20.6200 O   0  0  0  0  0  0  0  0  0  0  0  0
   28.8150   15.0180   20.7860 C   0  0  0  0  0  0  0  0  0  0  0  0
   27.6810   11.4160   21.6480 H   0  0  0  0  0  0  0  0  0  0  0  0
   22.3130   11.3880   20.0220 H   0  0  0  0  0  0  0  0  0  0  0  0
   26.0870    9.7880   21.3240 H   0  0  0  0  0  0  0  0  0  0  0  0
   24.1390    9.0800   22.4340 H   0  0  0  0  0  0  0  0  0  0  0  0
   22.6350    9.1630   21.5370 H   0  0  0  0  0  0  0  0  0  0  0  0
   22.1000   11.3430   22.5190 H   0  0  0  0  0  0  0  0  0  0  0  0
   22.9170    9.3800   24.7130 H   0  0  0  0  0  0  0  0  0  0  0  0
   20.7000   11.4930   24.7010 H   0  0  0  0  0  0  0  0  0  0  0  0
   23.3190   11.4480   26.3450 H   0  0  0  0  0  0  0  0  0  0  0  0
   22.0170   12.6320   26.5220 H   0  0  0  0  0  0  0  0  0  0  0  0
   24.5210   12.1620   22.7770 H   0  0  0  0  0  0  0  0  0  0  0  0
   24.6800   11.1190   24.1930 H   0  0  0  0  0  0  0  0  0  0  0  0
   21.6280    9.6820   26.8800 H   0  0  0  0  0  0  0  0  0  0  0  0
   20.4500    9.3500   25.7970 H   0  0  0  0  0  0  0  0  0  0  0  0
   20.4320   11.5160   27.8010 H   0  0  0  0  0  0  0  0  0  0  0  0
   19.5200   10.0090   27.8560 H   0  0  0  0  0  0  0  0  0  0  0  0
   17.9840    9.5490   25.7110 H   0  0  0  0  0  0  0  0  0  0  0  0
   15.8270   13.0670   24.5150 H   0  0  0  0  0  0  0  0  0  0  0  0
   17.3880   14.4500   25.7650 H   0  0  0  0  0  0  0  0  0  0  0  0
   19.2490   13.4510   27.0090 H   0  0  0  0  0  0  0  0  0  0  0  0
   14.5500    9.8030   25.9220 H   0  0  0  0  0  0  0  0  0  0  0  0
   15.8630    8.6410   25.7080 H   0  0  0  0  0  0  0  0  0  0  0  0
   14.4900    8.6150   24.6090 H   0  0  0  0  0  0  0  0  0  0  0  0
   14.0970   11.5390   24.0150 H   0  0  0  0  0  0  0  0  0  0  0  0
   14.2140   10.2390   22.8240 H   0  0  0  0  0  0  0  0  0  0  0  0
   15.2560   11.6520   22.6750 H   0  0  0  0  0  0  0  0  0  0  0  0
   20.6350    9.5600   23.0350 H   0  0  0  0  0  0  0  0  0  0  0  0
   25.5440   13.3620   17.2310 H   0  0  0  0  0  0  0  0  0  0  0  0
   27.0890   12.7810   17.8370 H   0  0  0  0  0  0  0  0  0  0  0  0
   29.6730   12.7090   19.7170 H   0  0  0  0  0  0  0  0  0  0  0  0
   29.7610   12.7860   21.5010 H   0  0  0  0  0  0  0  0  0  0  0  0
   28.0620   15.8090   20.7230 H   0  0  0  0  0  0  0  0  0  0  0  0
   29.5540   15.1750   19.9950 H   0  0  0  0  0  0  0  0  0  0  0  0
   29.2960   15.0730   21.7670 H   0  0  0  0  0  0  0  0  0  0  0  0
  1  2  1  0  0  0  0
  2  3  1  0  0  0  0
  2  4  1  0  0  0  0
  2  5  1  0  0  0  0
  5  6  1  0  0  0  0
  5 36  1  0  0  0  0
  5 39  1  0  0  0  0
  6  7  1  0  0  0  0
  7  8  1  0  0  0  0
  7 12  2  0  0  0  0
  8  9  2  0  0  0  0
  8 35  1  0  0  0  0
  9 10  1  0  0  0  0
  9 34  1  0  0  0  0
 10 11  2  0  0  0  0
 10 40  1  0  0  0  0
 11 12  1  0  0  0  0
 11 13  1  0  0  0  0
 12 41  1  0  0  0  0
 13 14  1  0  0  0  0
 13 42  1  0  0  0  0
 13 43  1  0  0  0  0
 14 15  1  0  0  0  0
 14 19  1  0  0  0  0
 14 44  1  0  0  0  0
 15 16  1  0  0  0  0
 15 33  1  0  0  0  0
 15 45  1  0  0  0  0
 16 17  1  0  0  0  0
 16 21  1  0  0  0  0
 16 46  1  0  0  0  0
 17 18  1  0  0  0  0
 17 47  1  0  0  0  0
 17 48  1  0  0  0  0
 18 19  1  0  0  0  0
 18 20  2  0  0  0  0
 19 49  1  0  0  0  0
 19 50  1  0  0  0  0
 21 22  1  0  0  0  0
 21 51  1  0  0  0  0
 21 52  1  0  0  0  0
 22 23  1  0  0  0  0
 22 53  1  0  0  0  0
 22 54  1  0  0  0  0
 23 24  1  0  0  0  0
 23 28  2  0  0  0  0
 24 25  2  0  0  0  0
 24 55  1  0  0  0  0
 25 26  1  0  0  0  0
 25 29  1  0  0  0  0
 26 27  2  0  0  0  0
 26 56  1  0  0  0  0
 27 28  1  0  0  0  0
 27 57  1  0  0  0  0
 28 58  1  0  0  0  0
 29 30  1  0  0  0  0
 29 31  1  0  0  0  0
 29 32  1  0  0  0  0
 31 59  1  0  0  0  0
 31 60  1  0  0  0  0
 31 61  1  0  0  0  0
 32 62  1  0  0  0  0
 32 63  1  0  0  0  0
 32 64  1  0  0  0  0
 33 65  1  0  0  0  0
 35 66  1  0  0  0  0
 35 67  1  0  0  0  0
 36 37  1  0  0  0  0
 36 68  1  0  0  0  0
 36 69  1  0  0  0  0
 37 38  1  0  0  0  0
 38 70  1  0  0  0  0
 38 71  1  0  0  0  0
 38 72  1  0  0  0  0
M  CHG  1  21   1
M  END
>  <PARENT_CMPD_ID>
23981898_17c

>  <STANDARD_TYPE>
IC50

>  <RELATION>
=

>  <STANDARD_VALUE>
0.017999999

>  <STANDARD_UNITS>
uM

>  <COMPOUND_KEY>
17c

>  <PUBMED_ID>
23981898

>  <JOURNAL>
Bioorg.Med.Chem.Lett.

>  <YEAR>
2013

>  <VOLUME>
23

>  <FIRST_PAGE>
5300

>  <Company>
Novartis

>  <idx>
478

>  <Model>
Valid

>  <target>
7.7447276

>  <des_pred_mlr>
7.0183001

>  <RF_Canvas>
7.7016702

>  <DNN_Canvas>
7.9243031

>  <pred_CoMFA>
8.0177002

>  <pred_COMSIA>
7.1803999

>  <pred_abm5>
7.540163

>  <pred_ff8>
7.9816933

>  <pred_gau6>
7.7286062

>  <CID>
BACE_478

>  <active>
1

>  <des_class_bayes>
1

>  <maacs_class_bayes>
1

>  <radial_class_bayes>
1

>  <dend_class_bayes>
1

>  <molprint_class_bayes>
1

>  <RF_canvas>
1

>  <DNN_canvas>
1

$$$$
22468639_15
  MOE2015           3D

 82 85  0  0  1  0  0  0  0  0999 V2000
   21.0950   13.8320   29.1930 C   0  0  0  0  0  0  0  0  0  0  0  0
   22.1890   13.8390   29.1890 H   0  0  0  0  0  0  0  0  0  0  0  0
   20.7450   14.8710   29.1600 H   0  0  0  0  0  0  0  0  0  0  0  0
   20.4590   13.0120   30.3110 C   0  0  0  0  0  0  0  0  0  0  0  0
   20.0490   13.5860   31.1460 H   0  0  0  0  0  0  0  0  0  0  0  0
   21.1160   12.2300   30.7100 H   0  0  0  0  0  0  0  0  0  0  0  0
   19.4400   12.4960   29.2980 C   0  0  0  0  0  0  0  0  0  0  0  0
   18.4970   13.0550   29.3030 H   0  0  0  0  0  0  0  0  0  0  0  0
   19.2080   11.4300   29.3810 H   0  0  0  0  0  0  0  0  0  0  0  0
   20.4060   12.9070   28.1620 C   0  0  0  0  0  0  0  0  0  0  0  0
   21.3260   11.8360   27.6020 C   0  0  0  0  0  0  0  0  0  0  0  0
   21.8270   11.2700   28.3980 H   0  0  0  0  0  0  0  0  0  0  0  0
   22.1200   12.3330   27.0320 H   0  0  0  0  0  0  0  0  0  0  0  0
   19.8060   13.6330   27.0780 O   0  0  0  0  0  0  0  0  0  0  0  0
   19.1520   12.8940   26.1310 C   0  0  0  0  0  0  0  0  0  0  0  0
   18.2390   13.5870   25.4330 N   0  0  0  0  0  0  0  0  0  0  0  0
   17.5730   12.9200   24.4770 C   0  0  0  0  0  0  0  0  0  0  0  0
   16.8540   13.5220   23.9270 H   0  0  0  0  0  0  0  0  0  0  0  0
   17.7500   11.5740   24.1970 C   0  0  0  0  0  0  0  0  0  0  0  0
   16.9400   10.9030   23.1280 C   0  0  0  0  0  0  0  0  0  0  0  0
   17.5430   10.0960   22.6880 H   0  0  0  0  0  0  0  0  0  0  0  0
   16.8070   11.6230   22.3070 H   0  0  0  0  0  0  0  0  0  0  0  0
   15.5650   10.3490   23.5520 C   0  0  0  0  0  0  0  0  0  0  0  0
   14.8560    9.8380   22.2940 C   0  0  0  0  0  0  0  0  0  0  0  0
   14.6990   10.6440   21.5680 H   0  0  0  0  0  0  0  0  0  0  0  0
   13.8730    9.4130   22.5300 H   0  0  0  0  0  0  0  0  0  0  0  0
   15.4410    9.0550   21.7980 H   0  0  0  0  0  0  0  0  0  0  0  0
   14.6800   11.4210   24.1890 C   0  0  0  0  0  0  0  0  0  0  0  0
   14.5850   12.2980   23.5390 H   0  0  0  0  0  0  0  0  0  0  0  0
   15.0690   11.7550   25.1570 H   0  0  0  0  0  0  0  0  0  0  0  0
   13.6680   11.0400   24.3720 H   0  0  0  0  0  0  0  0  0  0  0  0
   15.7180    9.1830   24.5270 C   0  0  0  0  0  0  0  0  0  0  0  0
   16.3640    8.3990   24.1140 H   0  0  0  0  0  0  0  0  0  0  0  0
   14.7480    8.7230   24.7520 H   0  0  0  0  0  0  0  0  0  0  0  0
   16.1490    9.5030   25.4820 H   0  0  0  0  0  0  0  0  0  0  0  0
   18.7050   10.8900   24.9420 C   0  0  0  0  0  0  0  0  0  0  0  0
   18.8580    9.8300   24.7510 H   0  0  0  0  0  0  0  0  0  0  0  0
   19.4550   11.5590   25.9110 C   0  0  0  0  0  0  0  0  0  0  0  0
   20.5250   10.8780   26.7130 C   0  0  3  0  0  0  0  0  0  0  0  0
   20.0250   10.1460   27.3600 H   0  0  0  0  0  0  0  0  0  0  0  0
   21.5000   10.0600   25.8940 N   0  3  0  0  0  0  0  0  0  0  0  0
   20.9890    9.2990   25.4140 H   0  0  0  0  0  0  0  0  0  0  0  0
   22.1640    9.5810   26.5160 H   0  0  0  0  0  0  0  0  0  0  0  0
   22.2500   10.7870   24.8030 C   0  0  0  0  0  0  0  0  0  0  0  0
   23.0720   11.3230   25.2840 H   0  0  0  0  0  0  0  0  0  0  0  0
   21.5600   11.4920   24.3340 H   0  0  0  0  0  0  0  0  0  0  0  0
   22.7470    9.7630   23.7790 C   0  0  3  0  0  0  0  0  0  0  0  0
   23.4140    9.0430   24.2680 H   0  0  0  0  0  0  0  0  0  0  0  0
   21.6000    9.0370   23.3130 O   0  0  0  0  0  0  0  0  0  0  0  0
   21.1520    9.5470   22.6110 H   0  0  0  0  0  0  0  0  0  0  0  0
   23.4790   10.4540   22.6090 C   0  0  3  0  0  0  0  0  0  0  0  0
   22.7540   11.1430   22.1560 H   0  0  0  0  0  0  0  0  0  0  0  0
   24.6310   11.2330   23.0540 N   0  0  0  0  0  0  0  0  0  0  0  0
   25.4880   10.7490   23.3070 H   0  0  0  0  0  0  0  0  0  0  0  0
   24.6110   12.6090   23.0880 C   0  0  0  0  0  0  0  0  0  0  0  0
   23.5950   13.2660   22.8940 O   0  0  0  0  0  0  0  0  0  0  0  0
   25.9590   13.2340   23.3130 C   0  0  0  0  0  0  0  0  0  0  0  0
   26.5490   12.6400   24.0170 H   0  0  0  0  0  0  0  0  0  0  0  0
   25.8310   14.2380   23.7280 H   0  0  0  0  0  0  0  0  0  0  0  0
   26.4900   13.2970   22.3600 H   0  0  0  0  0  0  0  0  0  0  0  0
   23.9270    9.4670   21.5080 C   0  0  0  0  0  0  0  0  0  0  0  0
   23.0880    8.8410   21.1810 H   0  0  0  0  0  0  0  0  0  0  0  0
   24.6880    8.7840   21.9060 H   0  0  0  0  0  0  0  0  0  0  0  0
   24.4660   10.1960   20.3010 C   0  0  0  0  0  0  0  0  0  0  0  0
   25.8130   10.1100   19.9370 C   0  0  0  0  0  0  0  0  0  0  0  0
   26.4980    9.4790   20.4990 H   0  0  0  0  0  0  0  0  0  0  0  0
   26.3130   10.8620   18.8710 C   0  0  0  0  0  0  0  0  0  0  0  0
   27.6470   10.7470   18.5980 O   0  0  0  0  0  0  0  0  0  0  0  0
   28.3030   11.9820   18.3340 C   0  0  0  0  0  0  0  0  0  0  0  0
   28.3460   12.1720   17.2580 H   0  0  0  0  0  0  0  0  0  0  0  0
   27.8610   12.8280   18.8710 H   0  0  0  0  0  0  0  0  0  0  0  0
   29.3370   11.8830   18.6820 H   0  0  0  0  0  0  0  0  0  0  0  0
   25.8870   12.3870   17.0720 O   0  0  0  0  0  0  0  0  0  0  0  0
   25.8120   11.6040   15.8830 C   0  0  0  0  0  0  0  0  0  0  0  0
   26.1930   12.2130   15.0580 H   0  0  0  0  0  0  0  0  0  0  0  0
   26.4330   10.7040   15.9530 H   0  0  0  0  0  0  0  0  0  0  0  0
   24.7760   11.3330   15.6520 H   0  0  0  0  0  0  0  0  0  0  0  0
   25.4440   11.6560   18.1340 C   0  0  0  0  0  0  0  0  0  0  0  0
   24.1050   11.7550   18.4890 C   0  0  0  0  0  0  0  0  0  0  0  0
   23.4400   12.4000   17.9220 H   0  0  0  0  0  0  0  0  0  0  0  0
   23.6180   11.0200   19.5580 C   0  0  0  0  0  0  0  0  0  0  0  0
   22.5640   11.1070   19.8100 H   0  0  0  0  0  0  0  0  0  0  0  0
  1  2  1  0  0  0  0
  1  3  1  0  0  0  0
  1  4  1  0  0  0  0
  1 10  1  0  0  0  0
  4  5  1  0  0  0  0
  4  6  1  0  0  0  0
  4  7  1  0  0  0  0
  7  8  1  0  0  0  0
  7  9  1  0  0  0  0
  7 10  1  0  0  0  0
 10 11  1  0  0  0  0
 10 14  1  0  0  0  0
 11 12  1  0  0  0  0
 11 13  1  0  0  0  0
 11 39  1  0  0  0  0
 14 15  1  0  0  0  0
 15 16  1  0  0  0  0
 15 38  2  0  0  0  0
 16 17  2  0  0  0  0
 17 18  1  0  0  0  0
 17 19  1  0  0  0  0
 19 20  1  0  0  0  0
 19 36  2  0  0  0  0
 20 21  1  0  0  0  0
 20 22  1  0  0  0  0
 20 23  1  0  0  0  0
 23 24  1  0  0  0  0
 23 28  1  0  0  0  0
 23 32  1  0  0  0  0
 24 25  1  0  0  0  0
 24 26  1  0  0  0  0
 24 27  1  0  0  0  0
 28 29  1  0  0  0  0
 28 30  1  0  0  0  0
 28 31  1  0  0  0  0
 32 33  1  0  0  0  0
 32 34  1  0  0  0  0
 32 35  1  0  0  0  0
 36 37  1  0  0  0  0
 36 38  1  0  0  0  0
 38 39  1  0  0  0  0
 39 40  1  0  0  0  0
 39 41  1  0  0  0  0
 41 42  1  0  0  0  0
 41 43  1  0  0  0  0
 41 44  1  0  0  0  0
 44 45  1  0  0  0  0
 44 46  1  0  0  0  0
 44 47  1  0  0  0  0
 47 48  1  0  0  0  0
 47 49  1  0  0  0  0
 47 51  1  0  0  0  0
 49 50  1  0  0  0  0
 51 52  1  0  0  0  0
 51 53  1  0  0  0  0
 51 61  1  0  0  0  0
 53 54  1  0  0  0  0
 53 55  1  0  0  0  0
 55 56  2  0  0  0  0
 55 57  1  0  0  0  0
 57 58  1  0  0  0  0
 57 59  1  0  0  0  0
 57 60  1  0  0  0  0
 61 62  1  0  0  0  0
 61 63  1  0  0  0  0
 61 64  1  0  0  0  0
 64 65  1  0  0  0  0
 64 81  2  0  0  0  0
 65 66  1  0  0  0  0
 65 67  2  0  0  0  0
 67 68  1  0  0  0  0
 67 78  1  0  0  0  0
 68 69  1  0  0  0  0
 69 70  1  0  0  0  0
 69 71  1  0  0  0  0
 69 72  1  0  0  0  0
 73 74  1  0  0  0  0
 73 78  1  0  0  0  0
 74 75  1  0  0  0  0
 74 76  1  0  0  0  0
 74 77  1  0  0  0  0
 78 79  2  0  0  0  0
 79 80  1  0  0  0  0
 79 81  1  0  0  0  0
 81 82  1  0  0  0  0
M  CHG  1  41   1
M  END
>  <PARENT_CMPD_ID>
22468639_15

>  <STANDARD_TYPE>
IC50

>  <RELATION>
=

>  <STANDARD_VALUE>
18.200001

>  <STANDARD_UNITS>
nM

>  <COMPOUND_KEY>
15

>  <PUBMED_ID>
22468639

>  <JOURNAL>
J. Med. Chem.

>  <YEAR>
2012

>  <VOLUME>
55

>  <FIRST_PAGE>
9009

>  <Company>
Amgen

>  <idx>
479

>  <Model>
Valid

>  <target>
7.7399287

>  <des_pred_mlr>
7.2677598

>  <RF_Canvas>
7.8249512

>  <DNN_Canvas>
8.0098095

>  <pred_CoMFA>
7.6231999

>  <pred_COMSIA>
7.3116002

>  <pred_abm5>
7.6441474

>  <pred_ff8>
6.3793607

>  <pred_gau6>
7.6461062

>  <CID>
BACE_479

>  <active>
1

>  <des_class_bayes>
0

>  <maacs_class_bayes>
1

>  <radial_class_bayes>
1

>  <dend_class_bayes>
1

>  <molprint_class_bayes>
1

>  <RF_canvas>
1

>  <DNN_canvas>
1

$$$$
CHEMBL500555
  MOE2015           3D

 78 82  0  0  1  0  0  0  0  0999 V2000
   29.6210   10.8260   21.4270 C   0  0  0  0  0  0  0  0  0  0  0  0
   29.3420   12.1760   20.8080 C   0  0  0  0  0  0  0  0  0  0  0  0
   29.2080   13.2070   21.8060 N   0  0  0  0  0  0  0  0  0  0  0  0
   30.2100   14.0390   22.1900 C   0  0  0  0  0  0  0  0  0  0  0  0
   29.8220   14.8210   23.1610 N   0  0  0  0  0  0  0  0  0  0  0  0
   28.4990   14.5080   23.3930 C   0  0  0  0  0  0  0  0  0  0  0  0
   27.6070   15.0080   24.3690 C   0  0  0  0  0  0  0  0  0  0  0  0
   26.2870   14.4890   24.3770 C   0  0  0  0  0  0  0  0  0  0  0  0
   25.8940   13.4750   23.4930 C   0  0  0  0  0  0  0  0  0  0  0  0
   26.8000   12.9820   22.5480 C   0  0  0  0  0  0  0  0  0  0  0  0
   28.0890   13.5070   22.5340 C   0  0  0  0  0  0  0  0  0  0  0  0
   24.5110   12.8840   23.5120 C   0  0  0  0  0  0  0  0  0  0  0  0
   23.4900   13.5490   23.6360 O   0  0  0  0  0  0  0  0  0  0  0  0
   24.4540   11.5170   23.2770 N   0  0  0  0  0  0  0  0  0  0  0  0
   23.2100   10.8040   22.9610 C   0  0  3  0  0  0  0  0  0  0  0  0
   23.4450    9.8500   21.7640 C   0  0  0  0  0  0  0  0  0  0  0  0
   24.2690   10.4440   20.6540 C   0  0  0  0  0  0  0  0  0  0  0  0
   25.4540    9.8260   20.2520 C   0  0  0  0  0  0  0  0  0  0  0  0
   26.2490   10.3970   19.2670 C   0  0  0  0  0  0  0  0  0  0  0  0
   25.8700   11.5920   18.6760 C   0  0  0  0  0  0  0  0  0  0  0  0
   24.6880   12.2080   19.0580 C   0  0  0  0  0  0  0  0  0  0  0  0
   23.8850   11.6320   20.0340 C   0  0  0  0  0  0  0  0  0  0  0  0
   22.6500   10.0430   24.1840 C   0  0  3  0  0  0  0  0  0  0  0  0
   21.5040    9.2370   23.8440 O   0  0  0  0  0  0  0  0  0  0  0  0
   22.1790   10.9980   25.2830 C   0  0  0  0  0  0  0  0  0  0  0  0
   21.3570   10.1820   26.2460 N   0  3  0  0  0  0  0  0  0  0  0  0
   20.4400   10.9460   27.1310 C   0  0  0  0  0  0  0  0  0  0  0  0
   19.2950   11.5940   26.4130 C   0  0  0  0  0  0  0  0  0  0  0  0
   19.1280   12.9780   26.4410 C   0  0  0  0  0  0  0  0  0  0  0  0
   18.0810   13.5790   25.7540 C   0  0  0  0  0  0  0  0  0  0  0  0
   17.1880   12.8050   25.0310 C   0  0  0  0  0  0  0  0  0  0  0  0
   17.3240   11.4170   25.0060 C   0  0  0  0  0  0  0  0  0  0  0  0
   18.3810   10.8210   25.6970 C   0  0  0  0  0  0  0  0  0  0  0  0
   16.3690   10.5680   24.2130 C   0  0  0  0  0  0  0  0  0  0  0  0
   16.7490   10.4550   22.9130 F   0  0  0  0  0  0  0  0  0  0  0  0
   15.1000   11.0580   24.1980 F   0  0  0  0  0  0  0  0  0  0  0  0
   16.2700    9.2930   24.6800 F   0  0  0  0  0  0  0  0  0  0  0  0
   28.1000   15.9020   25.3500 N   0  0  0  0  0  0  0  0  0  0  0  0
   29.4190   16.5020   25.2390 C   0  0  0  0  0  0  0  0  0  0  0  0
   29.4110   17.6070   26.2640 C   0  0  0  0  0  0  0  0  0  0  0  0
   28.4660   17.0950   27.3270 C   0  0  0  0  0  0  0  0  0  0  0  0
   27.4960   16.2430   26.5520 C   0  0  0  0  0  0  0  0  0  0  0  0
   26.4270   15.8810   27.0160 O   0  0  0  0  0  0  0  0  0  0  0  0
   29.7330   10.0660   20.6470 H   0  0  0  0  0  0  0  0  0  0  0  0
   28.8060   10.5120   22.0880 H   0  0  0  0  0  0  0  0  0  0  0  0
   30.5420   10.8430   22.0200 H   0  0  0  0  0  0  0  0  0  0  0  0
   28.4250   12.1580   20.2140 H   0  0  0  0  0  0  0  0  0  0  0  0
   30.1580   12.4590   20.1330 H   0  0  0  0  0  0  0  0  0  0  0  0
   31.2000   14.0230   21.7520 H   0  0  0  0  0  0  0  0  0  0  0  0
   25.5590   14.8520   25.0990 H   0  0  0  0  0  0  0  0  0  0  0  0
   26.5150   12.2200   21.8310 H   0  0  0  0  0  0  0  0  0  0  0  0
   25.3190   10.9840   23.2970 H   0  0  0  0  0  0  0  0  0  0  0  0
   22.4630   11.5420   22.6420 H   0  0  0  0  0  0  0  0  0  0  0  0
   23.9430    8.9420   22.1310 H   0  0  0  0  0  0  0  0  0  0  0  0
   22.4840    9.5240   21.3470 H   0  0  0  0  0  0  0  0  0  0  0  0
   25.7750    8.8930   20.7080 H   0  0  0  0  0  0  0  0  0  0  0  0
   27.1680    9.9060   18.9590 H   0  0  0  0  0  0  0  0  0  0  0  0
   26.4900   12.0390   17.9030 H   0  0  0  0  0  0  0  0  0  0  0  0
   24.3820   13.1390   18.5890 H   0  0  0  0  0  0  0  0  0  0  0  0
   22.9600   12.1310   20.3150 H   0  0  0  0  0  0  0  0  0  0  0  0
   23.4100    9.3670   24.5950 H   0  0  0  0  0  0  0  0  0  0  0  0
   21.7930    8.5090   23.2610 H   0  0  0  0  0  0  0  0  0  0  0  0
   21.5210   11.7680   24.8680 H   0  0  0  0  0  0  0  0  0  0  0  0
   22.9980   11.4580   25.8420 H   0  0  0  0  0  0  0  0  0  0  0  0
   20.8280    9.5400   25.6260 H   0  0  0  0  0  0  0  0  0  0  0  0
   21.9730    9.5810   26.8060 H   0  0  0  0  0  0  0  0  0  0  0  0
   20.0510   10.2300   27.8640 H   0  0  0  0  0  0  0  0  0  0  0  0
   21.0550   11.6730   27.6720 H   0  0  0  0  0  0  0  0  0  0  0  0
   19.8210   13.6120   26.9910 H   0  0  0  0  0  0  0  0  0  0  0  0
   17.9690   14.6610   25.7760 H   0  0  0  0  0  0  0  0  0  0  0  0
   16.3770   13.2900   24.4890 H   0  0  0  0  0  0  0  0  0  0  0  0
   18.4770    9.7360   25.6740 H   0  0  0  0  0  0  0  0  0  0  0  0
   30.1770   15.7520   25.4900 H   0  0  0  0  0  0  0  0  0  0  0  0
   29.5890   16.9310   24.2470 H   0  0  0  0  0  0  0  0  0  0  0  0
   30.4080   17.8390   26.6510 H   0  0  0  0  0  0  0  0  0  0  0  0
   29.0020   18.5240   25.8230 H   0  0  0  0  0  0  0  0  0  0  0  0
   27.9500   17.9090   27.8410 H   0  0  0  0  0  0  0  0  0  0  0  0
   28.9850   16.4630   28.0550 H   0  0  0  0  0  0  0  0  0  0  0  0
  1  2  1  0  0  0  0
  1 44  1  0  0  0  0
  1 45  1  0  0  0  0
  1 46  1  0  0  0  0
  2  3  1  0  0  0  0
  2 47  1  0  0  0  0
  2 48  1  0  0  0  0
  3  4  1  0  0  0  0
  3 11  1  0  0  0  0
  4  5  2  0  0  0  0
  4 49  1  0  0  0  0
  5  6  1  0  0  0  0
  6  7  1  0  0  0  0
  6 11  2  0  0  0  0
  7  8  2  0  0  0  0
  7 38  1  0  0  0  0
  8  9  1  0  0  0  0
  8 50  1  0  0  0  0
  9 10  2  0  0  0  0
  9 12  1  0  0  0  0
 10 11  1  0  0  0  0
 10 51  1  0  0  0  0
 12 13  2  0  0  0  0
 12 14  1  0  0  0  0
 14 15  1  0  0  0  0
 14 52  1  0  0  0  0
 15 16  1  0  0  0  0
 15 23  1  0  0  0  0
 15 53  1  0  0  0  0
 16 17  1  0  0  0  0
 16 54  1  0  0  0  0
 16 55  1  0  0  0  0
 17 18  1  0  0  0  0
 17 22  2  0  0  0  0
 18 19  2  0  0  0  0
 18 56  1  0  0  0  0
 19 20  1  0  0  0  0
 19 57  1  0  0  0  0
 20 21  2  0  0  0  0
 20 58  1  0  0  0  0
 21 22  1  0  0  0  0
 21 59  1  0  0  0  0
 22 60  1  0  0  0  0
 23 24  1  0  0  0  0
 23 25  1  0  0  0  0
 23 61  1  0  0  0  0
 24 62  1  0  0  0  0
 25 26  1  0  0  0  0
 25 63  1  0  0  0  0
 25 64  1  0  0  0  0
 26 27  1  0  0  0  0
 26 65  1  0  0  0  0
 26 66  1  0  0  0  0
 27 28  1  0  0  0  0
 27 67  1  0  0  0  0
 27 68  1  0  0  0  0
 28 29  1  0  0  0  0
 28 33  2  0  0  0  0
 29 30  2  0  0  0  0
 29 69  1  0  0  0  0
 30 31  1  0  0  0  0
 30 70  1  0  0  0  0
 31 32  2  0  0  0  0
 31 71  1  0  0  0  0
 32 33  1  0  0  0  0
 32 34  1  0  0  0  0
 33 72  1  0  0  0  0
 34 35  1  0  0  0  0
 34 36  1  0  0  0  0
 34 37  1  0  0  0  0
 38 39  1  0  0  0  0
 38 42  1  0  0  0  0
 39 40  1  0  0  0  0
 39 73  1  0  0  0  0
 39 74  1  0  0  0  0
 40 41  1  0  0  0  0
 40 75  1  0  0  0  0
 40 76  1  0  0  0  0
 41 42  1  0  0  0  0
 41 77  1  0  0  0  0
 41 78  1  0  0  0  0
 42 43  2  0  0  0  0
M  CHG  1  26   1
M  END
>  <PARENT_CMPD_ID>
CHEMBL500555

>  <STANDARD_TYPE>
IC50

>  <RELATION>
=

>  <STANDARD_VALUE>
19

>  <STANDARD_UNITS>
nM

>  <COMPOUND_KEY>
16

>  <PUBMED_ID>
19428244

>  <JOURNAL>
Bioorg. Med. Chem. Lett.

>  <YEAR>
2009

>  <VOLUME>
19

>  <FIRST_PAGE>
3664

>  <Company>
GSK

>  <idx>
480

>  <Model>
Valid

>  <target>
7.7212462

>  <des_pred_mlr>
7.2801399

>  <RF_Canvas>
7.3424582

>  <DNN_Canvas>
7.0926838

>  <pred_CoMFA>
7.0791001

>  <pred_COMSIA>
7.3021002

>  <pred_abm5>
7.195612

>  <pred_ff8>
7.4286814

>  <pred_gau6>
6.0552664

>  <CID>
BACE_480

>  <active>
1

>  <des_class_bayes>
1

>  <maacs_class_bayes>
1

>  <radial_class_bayes>
0

>  <dend_class_bayes>
1

>  <molprint_class_bayes>
1

>  <RF_canvas>
1

>  <DNN_canvas>
1

$$$$
CHEMBL553699
  MOE2015           3D

 81 84  0  0  1  0  0  0  0  0999 V2000
   30.3910   10.9940   21.0650 C   0  0  0  0  0  0  0  0  0  0  0  0
   29.0050   11.5610   21.2570 C   0  0  0  0  0  0  0  0  0  0  0  0
   29.0970   12.8660   21.8660 N   0  0  0  0  0  0  0  0  0  0  0  0
   28.0990   13.4340   22.6440 C   0  0  0  0  0  0  0  0  0  0  0  0
   26.8040   12.8990   22.6730 C   0  0  0  0  0  0  0  0  0  0  0  0
   25.7910   13.4160   23.4820 C   0  0  0  0  0  0  0  0  0  0  0  0
   26.0470   14.5510   24.2240 C   0  0  0  0  0  0  0  0  0  0  0  0
   27.3210   15.1290   24.1980 C   0  0  0  0  0  0  0  0  0  0  0  0
   27.4610   16.3700   24.8930 N   0  0  0  0  0  0  0  0  0  0  0  0
   27.1300   16.4650   26.3080 C   0  0  0  0  0  0  0  0  0  0  0  0
   28.2160   17.6610   24.1020 S   0  0  0  0  0  0  0  0  0  0  0  0
   27.8210   18.9070   24.7290 O   0  0  0  0  0  0  0  0  0  0  0  0
   28.0630   17.4880   22.6710 O   0  0  0  0  0  0  0  0  0  0  0  0
   29.9130   17.3500   24.5400 C   0  0  0  0  0  0  0  0  0  0  0  0
   30.2490   15.8860   24.6940 C   0  0  0  0  0  0  0  0  0  0  0  0
   29.8130   15.0380   23.5060 C   0  0  0  0  0  0  0  0  0  0  0  0
   28.3810   14.5390   23.4710 C   0  0  0  0  0  0  0  0  0  0  0  0
   24.4260   12.8110   23.4790 C   0  0  0  0  0  0  0  0  0  0  0  0
   23.4050   13.4770   23.5980 O   0  0  0  0  0  0  0  0  0  0  0  0
   24.3860   11.4480   23.2640 N   0  0  0  0  0  0  0  0  0  0  0  0
   23.1490   10.7310   22.9470 C   0  0  3  0  0  0  0  0  0  0  0  0
   23.4020    9.7950   21.7430 C   0  0  0  0  0  0  0  0  0  0  0  0
   24.2320   10.4200   20.6510 C   0  0  0  0  0  0  0  0  0  0  0  0
   25.4210    9.8170   20.2420 C   0  0  0  0  0  0  0  0  0  0  0  0
   26.2130   10.4090   19.2680 C   0  0  0  0  0  0  0  0  0  0  0  0
   25.8360   11.6160   18.7020 C   0  0  0  0  0  0  0  0  0  0  0  0
   24.6540   12.2210   19.0960 C   0  0  0  0  0  0  0  0  0  0  0  0
   23.8470   11.6200   20.0540 C   0  0  0  0  0  0  0  0  0  0  0  0
   22.5900    9.9750   24.1740 C   0  0  3  0  0  0  0  0  0  0  0  0
   21.4480    9.1730   23.8330 O   0  0  0  0  0  0  0  0  0  0  0  0
   22.1130   10.9370   25.2640 C   0  0  0  0  0  0  0  0  0  0  0  0
   21.3140   10.1320   26.2520 N   0  3  0  0  0  0  0  0  0  0  0  0
   20.4130   10.9140   27.1400 C   0  0  0  0  0  0  0  0  0  0  0  0
   19.2800   11.5850   26.4230 C   0  0  0  0  0  0  0  0  0  0  0  0
   19.1280   12.9700   26.4680 C   0  0  0  0  0  0  0  0  0  0  0  0
   18.0940   13.5930   25.7810 C   0  0  0  0  0  0  0  0  0  0  0  0
   17.1980   12.8380   25.0420 C   0  0  0  0  0  0  0  0  0  0  0  0
   17.3200   11.4500   24.9990 C   0  0  0  0  0  0  0  0  0  0  0  0
   18.3640   10.8320   25.6910 C   0  0  0  0  0  0  0  0  0  0  0  0
   16.3550   10.6260   24.1920 C   0  0  0  0  0  0  0  0  0  0  0  0
   15.0660   11.0380   24.3210 F   0  0  0  0  0  0  0  0  0  0  0  0
   16.6370   10.6690   22.8630 F   0  0  0  0  0  0  0  0  0  0  0  0
   16.3600    9.3070   24.5290 F   0  0  0  0  0  0  0  0  0  0  0  0
   30.3390   10.0020   20.6050 H   0  0  0  0  0  0  0  0  0  0  0  0
   30.9160   10.9000   22.0220 H   0  0  0  0  0  0  0  0  0  0  0  0
   30.9960   11.6370   20.4160 H   0  0  0  0  0  0  0  0  0  0  0  0
   28.4440   10.8590   21.8840 H   0  0  0  0  0  0  0  0  0  0  0  0
   28.5070   11.6480   20.2890 H   0  0  0  0  0  0  0  0  0  0  0  0
   29.9400   13.3980   21.6840 H   0  0  0  0  0  0  0  0  0  0  0  0
   26.5680   12.0770   22.0040 H   0  0  0  0  0  0  0  0  0  0  0  0
   25.2430   15.0180   24.7870 H   0  0  0  0  0  0  0  0  0  0  0  0
   27.2640   15.5020   26.8130 H   0  0  0  0  0  0  0  0  0  0  0  0
   26.0930   16.7890   26.4330 H   0  0  0  0  0  0  0  0  0  0  0  0
   27.7810   17.1800   26.8200 H   0  0  0  0  0  0  0  0  0  0  0  0
   30.5270   17.8150   23.7610 H   0  0  0  0  0  0  0  0  0  0  0  0
   30.1110   17.8750   25.4810 H   0  0  0  0  0  0  0  0  0  0  0  0
   31.3410   15.8140   24.7910 H   0  0  0  0  0  0  0  0  0  0  0  0
   29.8440   15.4830   25.6290 H   0  0  0  0  0  0  0  0  0  0  0  0
   30.4650   14.1550   23.5560 H   0  0  0  0  0  0  0  0  0  0  0  0
   30.0410   15.5540   22.5650 H   0  0  0  0  0  0  0  0  0  0  0  0
   25.2520   10.9190   23.3000 H   0  0  0  0  0  0  0  0  0  0  0  0
   22.3970   11.4640   22.6280 H   0  0  0  0  0  0  0  0  0  0  0  0
   23.9070    8.8880   22.1010 H   0  0  0  0  0  0  0  0  0  0  0  0
   22.4480    9.4660   21.3110 H   0  0  0  0  0  0  0  0  0  0  0  0
   25.7460    8.8770   20.6800 H   0  0  0  0  0  0  0  0  0  0  0  0
   27.1320    9.9240   18.9470 H   0  0  0  0  0  0  0  0  0  0  0  0
   26.4580   12.0790   17.9400 H   0  0  0  0  0  0  0  0  0  0  0  0
   24.3490   13.1650   18.6500 H   0  0  0  0  0  0  0  0  0  0  0  0
   22.9190   12.1090   20.3400 H   0  0  0  0  0  0  0  0  0  0  0  0
   23.3500    9.3020   24.5890 H   0  0  0  0  0  0  0  0  0  0  0  0
   21.7380    8.4690   23.2220 H   0  0  0  0  0  0  0  0  0  0  0  0
   21.4430   11.6910   24.8410 H   0  0  0  0  0  0  0  0  0  0  0  0
   22.9320   11.4180   25.8060 H   0  0  0  0  0  0  0  0  0  0  0  0
   20.7760    9.4710   25.6610 H   0  0  0  0  0  0  0  0  0  0  0  0
   21.9530    9.5550   26.8120 H   0  0  0  0  0  0  0  0  0  0  0  0
   20.0130   10.2070   27.8750 H   0  0  0  0  0  0  0  0  0  0  0  0
   21.0440   11.6300   27.6770 H   0  0  0  0  0  0  0  0  0  0  0  0
   19.8230   13.5900   27.0330 H   0  0  0  0  0  0  0  0  0  0  0  0
   17.9900   14.6750   25.8190 H   0  0  0  0  0  0  0  0  0  0  0  0
   16.3940   13.3380   24.5030 H   0  0  0  0  0  0  0  0  0  0  0  0
   18.4490    9.7470   25.6550 H   0  0  0  0  0  0  0  0  0  0  0  0
  1  2  1  0  0  0  0
  1 44  1  0  0  0  0
  1 45  1  0  0  0  0
  1 46  1  0  0  0  0
  2  3  1  0  0  0  0
  2 47  1  0  0  0  0
  2 48  1  0  0  0  0
  3  4  1  0  0  0  0
  3 49  1  0  0  0  0
  4  5  1  0  0  0  0
  4 17  2  0  0  0  0
  5  6  2  0  0  0  0
  5 50  1  0  0  0  0
  6  7  1  0  0  0  0
  6 18  1  0  0  0  0
  7  8  2  0  0  0  0
  7 51  1  0  0  0  0
  8  9  1  0  0  0  0
  8 17  1  0  0  0  0
  9 10  1  0  0  0  0
  9 11  1  0  0  0  0
 10 52  1  0  0  0  0
 10 53  1  0  0  0  0
 10 54  1  0  0  0  0
 11 12  2  0  0  0  0
 11 13  2  0  0  0  0
 11 14  1  0  0  0  0
 14 15  1  0  0  0  0
 14 55  1  0  0  0  0
 14 56  1  0  0  0  0
 15 16  1  0  0  0  0
 15 57  1  0  0  0  0
 15 58  1  0  0  0  0
 16 17  1  0  0  0  0
 16 59  1  0  0  0  0
 16 60  1  0  0  0  0
 18 19  2  0  0  0  0
 18 20  1  0  0  0  0
 20 21  1  0  0  0  0
 20 61  1  0  0  0  0
 21 22  1  0  0  0  0
 21 29  1  0  0  0  0
 21 62  1  0  0  0  0
 22 23  1  0  0  0  0
 22 63  1  0  0  0  0
 22 64  1  0  0  0  0
 23 24  1  0  0  0  0
 23 28  2  0  0  0  0
 24 25  2  0  0  0  0
 24 65  1  0  0  0  0
 25 26  1  0  0  0  0
 25 66  1  0  0  0  0
 26 27  2  0  0  0  0
 26 67  1  0  0  0  0
 27 28  1  0  0  0  0
 27 68  1  0  0  0  0
 28 69  1  0  0  0  0
 29 30  1  0  0  0  0
 29 31  1  0  0  0  0
 29 70  1  0  0  0  0
 30 71  1  0  0  0  0
 31 32  1  0  0  0  0
 31 72  1  0  0  0  0
 31 73  1  0  0  0  0
 32 33  1  0  0  0  0
 32 74  1  0  0  0  0
 32 75  1  0  0  0  0
 33 34  1  0  0  0  0
 33 76  1  0  0  0  0
 33 77  1  0  0  0  0
 34 35  1  0  0  0  0
 34 39  2  0  0  0  0
 35 36  2  0  0  0  0
 35 78  1  0  0  0  0
 36 37  1  0  0  0  0
 36 79  1  0  0  0  0
 37 38  2  0  0  0  0
 37 80  1  0  0  0  0
 38 39  1  0  0  0  0
 38 40  1  0  0  0  0
 39 81  1  0  0  0  0
 40 41  1  0  0  0  0
 40 42  1  0  0  0  0
 40 43  1  0  0  0  0
M  CHG  1  32   1
M  END
>  <PARENT_CMPD_ID>
CHEMBL553699

>  <STANDARD_TYPE>
IC50

>  <RELATION>
=

>  <STANDARD_VALUE>
19

>  <STANDARD_UNITS>
nM

>  <COMPOUND_KEY>
11

>  <PUBMED_ID>
19477642

>  <JOURNAL>
Bioorg. Med. Chem. Lett.

>  <YEAR>
2009

>  <VOLUME>
19

>  <FIRST_PAGE>
3669

>  <Company>
GSK

>  <idx>
481

>  <Model>
Valid

>  <target>
7.7212462

>  <des_pred_mlr>
7.3893099

>  <RF_Canvas>
8.1351585

>  <DNN_Canvas>
7.7859168

>  <pred_CoMFA>
7.9499002

>  <pred_COMSIA>
8.0173998

>  <pred_abm5>
7.3831711

>  <pred_ff8>
7.1879883

>  <pred_gau6>
7.0687842

>  <CID>
BACE_481

>  <active>
1

>  <des_class_bayes>
1

>  <maacs_class_bayes>
1

>  <radial_class_bayes>
1

>  <dend_class_bayes>
1

>  <molprint_class_bayes>
1

>  <RF_canvas>
1

>  <DNN_canvas>
1

$$$$
CHEMBL583034
  MOE2015           3D

 76 78  0  0  1  0  0  0  0  0999 V2000
   24.2400   12.9570   22.9870 C   0  0  0  0  0  0  0  0  0  0  0  0
   22.4480   10.0730   23.8690 C   0  0  3  0  0  0  0  0  0  0  0  0
   23.5580    9.7780   21.5670 C   0  0  0  0  0  0  0  0  0  0  0  0
   25.5760   10.1830   20.1120 C   0  0  0  0  0  0  0  0  0  0  0  0
   24.2870   12.1950   18.7330 C   0  0  0  0  0  0  0  0  0  0  0  0
   22.1150   11.1330   24.9090 C   0  0  0  0  0  0  0  0  0  0  0  0
   20.4840   11.5960   26.7990 C   0  0  0  0  0  0  0  0  0  0  0  0
   21.5550   12.5730   27.3280 C   0  0  0  0  0  0  0  0  0  0  0  0
   21.0620   13.5500   28.3610 C   0  0  0  0  0  0  0  0  0  0  0  0
   19.3610   12.2020   25.9490 C   0  0  0  0  0  0  0  0  0  0  0  0
   17.2050   13.2470   24.4820 C   0  0  0  0  0  0  0  0  0  0  0  0
   18.3230   11.3850   25.4710 C   0  0  0  0  0  0  0  0  0  0  0  0
   23.6580   13.1730   18.0820 F   0  0  0  0  0  0  0  0  0  0  0  0
   23.6090   11.4930   19.7140 C   0  0  0  0  0  0  0  0  0  0  0  0
   25.5980   11.9030   18.4230 C   0  0  0  0  0  0  0  0  0  0  0  0
   26.2290   10.8910   19.1150 C   0  0  0  0  0  0  0  0  0  0  0  0
   27.4960   10.5940   18.8280 F   0  0  0  0  0  0  0  0  0  0  0  0
   24.2540   10.4850   20.4310 C   0  0  0  0  0  0  0  0  0  0  0  0
   23.1200   10.7620   22.6640 C   0  0  3  0  0  0  0  0  0  0  0  0
   24.2560   11.5830   23.0860 N   0  0  0  0  0  0  0  0  0  0  0  0
   23.2600   13.6090   22.6470 O   0  0  0  0  0  0  0  0  0  0  0  0
   25.5370   13.6010   23.3780 C   0  0  0  0  0  0  0  0  0  0  0  0
   21.2230    9.4240   23.5220 O   0  0  0  0  0  0  0  0  0  0  0  0
   21.2650   10.5540   26.0000 N   0  3  0  0  0  0  0  0  0  0  0  0
   20.2500   12.9190   29.4870 C   0  0  0  0  0  0  0  0  0  0  0  0
   19.2460   11.8740   28.9980 C   0  0  0  0  0  0  0  0  0  0  0  0
   19.8910   10.8790   28.0360 C   0  0  0  0  0  0  0  0  0  0  0  0
   19.3050   13.5510   25.6100 C   0  0  0  0  0  0  0  0  0  0  0  0
   17.2350   11.8790   24.7340 C   0  0  0  0  0  0  0  0  0  0  0  0
   18.2290   14.0730   24.9100 C   0  0  0  0  0  0  0  0  0  0  0  0
   16.1620   10.9300   24.2090 C   0  0  0  0  0  0  0  0  0  0  0  0
   15.6460   10.0180   25.3300 C   0  0  0  0  0  0  0  0  0  0  0  0
   14.9380   11.6480   23.6220 C   0  0  0  0  0  0  0  0  0  0  0  0
   16.7730   10.0690   23.0980 C   0  0  0  0  0  0  0  0  0  0  0  0
   23.1130    9.3200   24.3070 H   0  0  0  0  0  0  0  0  0  0  0  0
   24.2260    9.0220   22.0000 H   0  0  0  0  0  0  0  0  0  0  0  0
   22.6910    9.2360   21.1680 H   0  0  0  0  0  0  0  0  0  0  0  0
   26.1200    9.4030   20.6380 H   0  0  0  0  0  0  0  0  0  0  0  0
   21.5430   11.9430   24.4450 H   0  0  0  0  0  0  0  0  0  0  0  0
   23.0200   11.5280   25.3790 H   0  0  0  0  0  0  0  0  0  0  0  0
   22.0120   13.1560   26.5190 H   0  0  0  0  0  0  0  0  0  0  0  0
   22.3750   12.0000   27.7850 H   0  0  0  0  0  0  0  0  0  0  0  0
   20.4770   14.3430   27.8840 H   0  0  0  0  0  0  0  0  0  0  0  0
   21.9440   14.0610   28.7710 H   0  0  0  0  0  0  0  0  0  0  0  0
   16.3980   13.7090   23.9210 H   0  0  0  0  0  0  0  0  0  0  0  0
   18.3560   10.3170   25.6770 H   0  0  0  0  0  0  0  0  0  0  0  0
   22.5780   11.7650   19.9220 H   0  0  0  0  0  0  0  0  0  0  0  0
   26.1210   12.4560   17.6510 H   0  0  0  0  0  0  0  0  0  0  0  0
   22.3660   11.4240   22.2190 H   0  0  0  0  0  0  0  0  0  0  0  0
   25.0940   11.1270   23.4360 H   0  0  0  0  0  0  0  0  0  0  0  0
   25.5850   13.6860   24.4670 H   0  0  0  0  0  0  0  0  0  0  0  0
   25.6000   14.5980   22.9320 H   0  0  0  0  0  0  0  0  0  0  0  0
   26.3850   13.0090   23.0220 H   0  0  0  0  0  0  0  0  0  0  0  0
   20.7650    9.9360   22.8280 H   0  0  0  0  0  0  0  0  0  0  0  0
   21.8400    9.9690   26.6190 H   0  0  0  0  0  0  0  0  0  0  0  0
   20.6190    9.9010   25.5240 H   0  0  0  0  0  0  0  0  0  0  0  0
   18.3890   12.3590   28.5130 H   0  0  0  0  0  0  0  0  0  0  0  0
   18.8360   11.3300   29.8590 H   0  0  0  0  0  0  0  0  0  0  0  0
   20.9390   12.4270   30.1870 H   0  0  0  0  0  0  0  0  0  0  0  0
   19.5490   14.0100   30.1580 N   0  0  0  0  0  0  0  0  0  0  0  0
   20.6070   14.8810   30.5800 O   0  0  0  0  0  0  0  0  0  0  0  0
   20.2940   15.7480   30.2560 H   0  0  0  0  0  0  0  0  0  0  0  0
   19.1650   13.6730   31.0440 H   0  0  0  0  0  0  0  0  0  0  0  0
   20.6830   10.3390   28.5730 H   0  0  0  0  0  0  0  0  0  0  0  0
   19.1540   10.1180   27.7570 H   0  0  0  0  0  0  0  0  0  0  0  0
   20.0970   14.2490   25.8620 H   0  0  0  0  0  0  0  0  0  0  0  0
   18.2000   15.1340   24.6740 H   0  0  0  0  0  0  0  0  0  0  0  0
   15.2720   10.6030   26.1790 H   0  0  0  0  0  0  0  0  0  0  0  0
   16.4140    9.3380   25.7130 H   0  0  0  0  0  0  0  0  0  0  0  0
   14.8220    9.3840   24.9790 H   0  0  0  0  0  0  0  0  0  0  0  0
   14.4660   12.3100   24.3580 H   0  0  0  0  0  0  0  0  0  0  0  0
   14.1750   10.9310   23.2960 H   0  0  0  0  0  0  0  0  0  0  0  0
   15.1960   12.2480   22.7410 H   0  0  0  0  0  0  0  0  0  0  0  0
   17.6090    9.4590   23.4600 H   0  0  0  0  0  0  0  0  0  0  0  0
   17.1550   10.6880   22.2770 H   0  0  0  0  0  0  0  0  0  0  0  0
   16.0320    9.3800   22.6750 H   0  0  0  0  0  0  0  0  0  0  0  0
  1 20  1  0  0  0  0
  1 21  2  0  0  0  0
  1 22  1  0  0  0  0
  2  6  1  0  0  0  0
  2 19  1  0  0  0  0
  2 23  1  0  0  0  0
  2 35  1  0  0  0  0
  3 18  1  0  0  0  0
  3 19  1  0  0  0  0
  3 36  1  0  0  0  0
  3 37  1  0  0  0  0
  4 16  2  0  0  0  0
  4 18  1  0  0  0  0
  4 38  1  0  0  0  0
  5 13  1  0  0  0  0
  5 14  1  0  0  0  0
  5 15  2  0  0  0  0
  6 24  1  0  0  0  0
  6 39  1  0  0  0  0
  6 40  1  0  0  0  0
  7  8  1  0  0  0  0
  7 10  1  0  0  0  0
  7 24  1  0  0  0  0
  7 27  1  0  0  0  0
  8  9  1  0  0  0  0
  8 41  1  0  0  0  0
  8 42  1  0  0  0  0
  9 25  1  0  0  0  0
  9 43  1  0  0  0  0
  9 44  1  0  0  0  0
 10 12  2  0  0  0  0
 10 28  1  0  0  0  0
 11 29  2  0  0  0  0
 11 30  1  0  0  0  0
 11 45  1  0  0  0  0
 12 29  1  0  0  0  0
 12 46  1  0  0  0  0
 14 18  2  0  0  0  0
 14 47  1  0  0  0  0
 15 16  1  0  0  0  0
 15 48  1  0  0  0  0
 16 17  1  0  0  0  0
 19 20  1  0  0  0  0
 19 49  1  0  0  0  0
 20 50  1  0  0  0  0
 22 51  1  0  0  0  0
 22 52  1  0  0  0  0
 22 53  1  0  0  0  0
 23 54  1  0  0  0  0
 24 55  1  0  0  0  0
 24 56  1  0  0  0  0
 25 26  1  0  0  0  0
 25 59  1  0  0  0  0
 25 60  1  0  0  0  0
 26 27  1  0  0  0  0
 26 57  1  0  0  0  0
 26 58  1  0  0  0  0
 27 64  1  0  0  0  0
 27 65  1  0  0  0  0
 28 30  2  0  0  0  0
 28 66  1  0  0  0  0
 29 31  1  0  0  0  0
 30 67  1  0  0  0  0
 31 32  1  0  0  0  0
 31 33  1  0  0  0  0
 31 34  1  0  0  0  0
 32 68  1  0  0  0  0
 32 69  1  0  0  0  0
 32 70  1  0  0  0  0
 33 71  1  0  0  0  0
 33 72  1  0  0  0  0
 33 73  1  0  0  0  0
 34 74  1  0  0  0  0
 34 75  1  0  0  0  0
 34 76  1  0  0  0  0
 60 61  1  0  0  0  0
 60 63  1  0  0  0  0
 61 62  1  0  0  0  0
M  CHG  1  24   1
M  END
>  <PARENT_CMPD_ID>
CHEMBL583034

>  <STANDARD_TYPE>
IC50

>  <RELATION>
=

>  <STANDARD_VALUE>
19

>  <STANDARD_UNITS>
nM

>  <COMPOUND_KEY>
44

>  <PUBMED_ID>
19811916

>  <JOURNAL>
Bioorg. Med. Chem. Lett.

>  <YEAR>
2009

>  <VOLUME>
19

>  <FIRST_PAGE>
6386

>  <Company>
Elan

>  <idx>
482

>  <Model>
Valid

>  <target>
7.7212462

>  <des_pred_mlr>
6.5399699

>  <RF_Canvas>
7.508224

>  <DNN_Canvas>
7.4853544

>  <pred_CoMFA>
7.7076001

>  <pred_COMSIA>
8.0548

>  <pred_abm5>
7.5738573

>  <pred_ff8>
7.1558504

>  <pred_gau6>
7.627377

>  <CID>
BACE_482

>  <active>
1

>  <des_class_bayes>
0

>  <maacs_class_bayes>
0

>  <radial_class_bayes>
1

>  <dend_class_bayes>
1

>  <molprint_class_bayes>
1

>  <RF_canvas>
1

>  <DNN_canvas>
1

$$$$
CHEMBL595065
  MOE2015           3D

 85 89  0  0  1  0  0  0  0  0999 V2000
   24.2280   11.4950   22.9950 N   0  0  0  0  0  0  0  0  0  0  0  0
   23.0600   10.7080   22.6200 C   0  0  3  0  0  0  0  0  0  0  0  0
   23.4470    9.6780   21.5360 C   0  0  0  0  0  0  0  0  0  0  0  0
   24.1900   10.3150   20.3850 C   0  0  0  0  0  0  0  0  0  0  0  0
   25.5860   10.2200   20.3120 C   0  0  0  0  0  0  0  0  0  0  0  0
   26.3030   10.9160   19.3420 C   0  0  0  0  0  0  0  0  0  0  0  0
   25.6020   11.6760   18.4090 C   0  0  0  0  0  0  0  0  0  0  0  0
   24.2150   11.7450   18.4470 C   0  0  0  0  0  0  0  0  0  0  0  0
   23.5120   11.0750   19.4370 C   0  0  0  0  0  0  0  0  0  0  0  0
   27.6600   10.9820   19.2230 O   0  0  0  0  0  0  0  0  0  0  0  0
   28.4790   10.1170   20.0020 C   0  0  0  0  0  0  0  0  0  0  0  0
   29.8300   10.8000   20.2160 C   0  0  0  0  0  0  0  0  0  0  0  0
   29.7200   12.0720   21.0530 C   0  0  0  0  0  0  0  0  0  0  0  0
   29.5050   11.7910   22.5370 C   0  0  0  0  0  0  0  0  0  0  0  0
   29.2020   13.0200   23.2380 N   0  0  0  0  0  0  0  0  0  0  0  0
   27.9430   13.5610   23.3970 C   0  0  0  0  0  0  0  0  0  0  0  0
   26.7560   12.9360   23.0170 C   0  0  0  0  0  0  0  0  0  0  0  0
   25.5170   13.5370   23.2500 C   0  0  0  0  0  0  0  0  0  0  0  0
   25.4600   14.8060   23.7960 C   0  0  0  0  0  0  0  0  0  0  0  0
   26.6170   15.4520   24.2080 C   0  0  0  0  0  0  0  0  0  0  0  0
   27.8400   14.8190   23.9880 C   0  0  0  0  0  0  0  0  0  0  0  0
   24.2190   12.8710   22.9840 C   0  0  0  0  0  0  0  0  0  0  0  0
   23.2000   13.5300   22.8120 O   0  0  0  0  0  0  0  0  0  0  0  0
   22.4390   10.0450   23.8690 C   0  0  3  0  0  0  0  0  0  0  0  0
   21.2630    9.2940   23.5440 O   0  0  0  0  0  0  0  0  0  0  0  0
   22.0250   11.1000   24.9050 C   0  0  0  0  0  0  0  0  0  0  0  0
   21.3170   10.4060   26.0330 N   0  3  0  0  0  0  0  0  0  0  0  0
   20.4410   11.2690   26.8800 C   0  0  0  0  0  0  0  0  0  0  0  0
   21.0920   12.0270   27.3290 H   0  0  0  0  0  0  0  0  0  0  0  0
   20.0720   10.6300   27.6910 H   0  0  0  0  0  0  0  0  0  0  0  0
   19.2770   11.8860   26.1580 C   0  0  0  0  0  0  0  0  0  0  0  0
   18.2750   11.0890   25.5950 C   0  0  0  0  0  0  0  0  0  0  0  0
   17.1850   11.6510   24.9240 C   0  0  0  0  0  0  0  0  0  0  0  0
   17.1220   13.0390   24.8080 C   0  0  0  0  0  0  0  0  0  0  0  0
   18.1100   13.8430   25.3590 C   0  0  0  0  0  0  0  0  0  0  0  0
   19.1790   13.2710   26.0320 C   0  0  0  0  0  0  0  0  0  0  0  0
   16.0960   10.8100   24.2950 C   0  0  0  0  0  0  0  0  0  0  0  0
   16.5110   10.3620   22.9010 C   0  0  0  0  0  0  0  0  0  0  0  0
   15.6820    9.6090   25.1360 C   0  0  0  0  0  0  0  0  0  0  0  0
   25.0730   10.9990   23.2550 H   0  0  0  0  0  0  0  0  0  0  0  0
   22.3100   11.3770   22.1770 H   0  0  0  0  0  0  0  0  0  0  0  0
   22.5510    9.1750   21.1510 H   0  0  0  0  0  0  0  0  0  0  0  0
   24.0690    8.8880   21.9780 H   0  0  0  0  0  0  0  0  0  0  0  0
   26.0870    9.6100   21.0530 H   0  0  0  0  0  0  0  0  0  0  0  0
   26.1460   12.2280   17.6470 H   0  0  0  0  0  0  0  0  0  0  0  0
   23.6820   12.3480   17.7160 H   0  0  0  0  0  0  0  0  0  0  0  0
   22.4290   11.1700   19.4740 H   0  0  0  0  0  0  0  0  0  0  0  0
   28.6200    9.1850   19.4440 H   0  0  0  0  0  0  0  0  0  0  0  0
   28.0580    9.8740   20.9780 H   0  0  0  0  0  0  0  0  0  0  0  0
   30.2430   11.0720   19.2370 H   0  0  0  0  0  0  0  0  0  0  0  0
   30.5310   10.1000   20.6840 H   0  0  0  0  0  0  0  0  0  0  0  0
   28.9210   12.7130   20.6590 H   0  0  0  0  0  0  0  0  0  0  0  0
   30.6480   12.6480   20.9400 H   0  0  0  0  0  0  0  0  0  0  0  0
   30.4360   11.3820   22.9510 H   0  0  0  0  0  0  0  0  0  0  0  0
   28.7440   11.0280   22.7230 H   0  0  0  0  0  0  0  0  0  0  0  0
   29.9930   13.5260   23.6200 H   0  0  0  0  0  0  0  0  0  0  0  0
   26.7990   11.9720   22.5260 H   0  0  0  0  0  0  0  0  0  0  0  0
   24.4900   15.2610   23.9840 H   0  0  0  0  0  0  0  0  0  0  0  0
   28.7580   15.3170   24.2890 H   0  0  0  0  0  0  0  0  0  0  0  0
   23.1540    9.3490   24.3240 H   0  0  0  0  0  0  0  0  0  0  0  0
   20.7640    9.7730   22.8550 H   0  0  0  0  0  0  0  0  0  0  0  0
   21.3210   11.8070   24.4570 H   0  0  0  0  0  0  0  0  0  0  0  0
   22.8720   11.6360   25.3420 H   0  0  0  0  0  0  0  0  0  0  0  0
   21.9920    9.9040   26.6220 H   0  0  0  0  0  0  0  0  0  0  0  0
   20.7510    9.6710   25.5770 H   0  0  0  0  0  0  0  0  0  0  0  0
   18.3420   10.0070   25.6870 H   0  0  0  0  0  0  0  0  0  0  0  0
   16.2950   13.5110   24.2810 H   0  0  0  0  0  0  0  0  0  0  0  0
   18.0460   14.9240   25.2610 H   0  0  0  0  0  0  0  0  0  0  0  0
   19.9390   13.9260   26.4550 H   0  0  0  0  0  0  0  0  0  0  0  0
   15.1990   11.4370   24.1930 H   0  0  0  0  0  0  0  0  0  0  0  0
   17.3990    9.7210   22.9290 H   0  0  0  0  0  0  0  0  0  0  0  0
   16.7450   11.2210   22.2610 H   0  0  0  0  0  0  0  0  0  0  0  0
   15.7060    9.7980   22.4160 H   0  0  0  0  0  0  0  0  0  0  0  0
   16.4700    8.8490   25.1960 H   0  0  0  0  0  0  0  0  0  0  0  0
   14.8000    9.1240   24.7030 H   0  0  0  0  0  0  0  0  0  0  0  0
   15.4270    9.9110   26.1580 H   0  0  0  0  0  0  0  0  0  0  0  0
   26.9340   18.1220   26.6430 O   0  0  0  0  0  0  0  0  0  0  0  0
   25.8040   18.4270   25.8920 C   0  0  0  0  0  0  0  0  0  0  0  0
   25.2500   19.2900   26.2150 H   0  0  0  0  0  0  0  0  0  0  0  0
   25.5620   17.5840   24.8950 C   0  0  0  0  0  0  0  0  0  0  0  0
   24.7470   17.5950   24.1890 H   0  0  0  0  0  0  0  0  0  0  0  0
   26.5350   16.6350   24.9100 N   0  0  0  0  0  0  0  0  0  0  0  0
   27.5130   17.0100   25.9230 C   0  0  0  0  0  0  0  0  0  0  0  0
   28.4590   17.3420   25.4800 H   0  0  0  0  0  0  0  0  0  0  0  0
   27.6960   16.2030   26.6410 H   0  0  0  0  0  0  0  0  0  0  0  0
  1  2  1  0  0  0  0
  1 22  1  0  0  0  0
  1 40  1  0  0  0  0
  2  3  1  0  0  0  0
  2 24  1  0  0  0  0
  2 41  1  0  0  0  0
  3  4  1  0  0  0  0
  3 42  1  0  0  0  0
  3 43  1  0  0  0  0
  4  5  1  0  0  0  0
  4  9  2  0  0  0  0
  5  6  2  0  0  0  0
  5 44  1  0  0  0  0
  6  7  1  0  0  0  0
  6 10  1  0  0  0  0
  7  8  2  0  0  0  0
  7 45  1  0  0  0  0
  8  9  1  0  0  0  0
  8 46  1  0  0  0  0
  9 47  1  0  0  0  0
 10 11  1  0  0  0  0
 11 12  1  0  0  0  0
 11 48  1  0  0  0  0
 11 49  1  0  0  0  0
 12 13  1  0  0  0  0
 12 50  1  0  0  0  0
 12 51  1  0  0  0  0
 13 14  1  0  0  0  0
 13 52  1  0  0  0  0
 13 53  1  0  0  0  0
 14 15  1  0  0  0  0
 14 54  1  0  0  0  0
 14 55  1  0  0  0  0
 15 16  1  0  0  0  0
 15 56  1  0  0  0  0
 16 17  1  0  0  0  0
 16 21  2  0  0  0  0
 17 18  2  0  0  0  0
 17 57  1  0  0  0  0
 18 19  1  0  0  0  0
 18 22  1  0  0  0  0
 19 20  2  0  0  0  0
 19 58  1  0  0  0  0
 20 21  1  0  0  0  0
 20 82  1  0  0  0  0
 21 59  1  0  0  0  0
 22 23  2  0  0  0  0
 24 25  1  0  0  0  0
 24 26  1  0  0  0  0
 24 60  1  0  0  0  0
 25 61  1  0  0  0  0
 26 27  1  0  0  0  0
 26 62  1  0  0  0  0
 26 63  1  0  0  0  0
 27 28  1  0  0  0  0
 27 64  1  0  0  0  0
 27 65  1  0  0  0  0
 28 29  1  0  0  0  0
 28 30  1  0  0  0  0
 28 31  1  0  0  0  0
 31 32  1  0  0  0  0
 31 36  2  0  0  0  0
 32 33  2  0  0  0  0
 32 66  1  0  0  0  0
 33 34  1  0  0  0  0
 33 37  1  0  0  0  0
 34 35  2  0  0  0  0
 34 67  1  0  0  0  0
 35 36  1  0  0  0  0
 35 68  1  0  0  0  0
 36 69  1  0  0  0  0
 37 38  1  0  0  0  0
 37 39  1  0  0  0  0
 37 70  1  0  0  0  0
 38 71  1  0  0  0  0
 38 72  1  0  0  0  0
 38 73  1  0  0  0  0
 39 74  1  0  0  0  0
 39 75  1  0  0  0  0
 39 76  1  0  0  0  0
 77 78  1  0  0  0  0
 77 83  1  0  0  0  0
 78 79  1  0  0  0  0
 78 80  2  0  0  0  0
 80 81  1  0  0  0  0
 80 82  1  0  0  0  0
 82 83  1  0  0  0  0
 83 84  1  0  0  0  0
 83 85  1  0  0  0  0
M  CHG  1  27   1
M  END
>  <PARENT_CMPD_ID>
CHEMBL595065

>  <STANDARD_TYPE>
IC50

>  <RELATION>
=

>  <STANDARD_VALUE>
19

>  <STANDARD_UNITS>
nM

>  <COMPOUND_KEY>
14

>  <PUBMED_ID>
19963375

>  <JOURNAL>
Bioorg. Med. Chem. Lett.

>  <YEAR>
2010

>  <VOLUME>
20

>  <FIRST_PAGE>
603

>  <Company>
Novartis

>  <idx>
483

>  <Model>
Valid

>  <target>
7.7212462

>  <des_pred_mlr>
7.4320102

>  <RF_Canvas>
7.1120815

>  <DNN_Canvas>
6.9744501

>  <pred_CoMFA>
7.4981999

>  <pred_COMSIA>
8.2428999

>  <pred_abm5>
7.6068974

>  <pred_ff8>
7.2604604

>  <pred_gau6>
8.2878809

>  <CID>
BACE_483

>  <active>
1

>  <des_class_bayes>
1

>  <maacs_class_bayes>
1

>  <radial_class_bayes>
1

>  <dend_class_bayes>
1

>  <molprint_class_bayes>
1

>  <RF_canvas>
1

>  <DNN_canvas>
1

$$$$
CHEMBL1915992
  MOE2015           3D

 91 94  0  0  1  0  0  0  0  0999 V2000
   25.1250   20.4600   25.3770 C   0  0  0  0  0  0  0  0  0  0  0  0
   25.0110   21.5340   25.3990 H   0  0  0  0  0  0  0  0  0  0  0  0
   24.5530   19.6790   26.3820 C   0  0  0  0  0  0  0  0  0  0  0  0
   23.9970   20.1390   27.1860 H   0  0  0  0  0  0  0  0  0  0  0  0
   25.8500   19.8520   24.3350 C   0  0  0  0  0  0  0  0  0  0  0  0
   26.2880   20.4650   23.5610 H   0  0  0  0  0  0  0  0  0  0  0  0
   24.7120   18.2920   26.3300 C   0  0  0  0  0  0  0  0  0  0  0  0
   24.2700   17.6760   27.0990 H   0  0  0  0  0  0  0  0  0  0  0  0
   26.0110   18.4630   24.2890 C   0  0  0  0  0  0  0  0  0  0  0  0
   26.5700   17.9990   23.4900 H   0  0  0  0  0  0  0  0  0  0  0  0
   23.1870   11.8460   20.3250 C   0  0  0  0  0  0  0  0  0  0  0  0
   22.2260   12.1450   20.7180 H   0  0  0  0  0  0  0  0  0  0  0  0
   25.1040   10.4330   20.3920 C   0  0  0  0  0  0  0  0  0  0  0  0
   25.6580    9.6180   20.8340 H   0  0  0  0  0  0  0  0  0  0  0  0
   24.9360   12.1640   18.6930 C   0  0  0  0  0  0  0  0  0  0  0  0
   25.3360   12.6830   17.8350 H   0  0  0  0  0  0  0  0  0  0  0  0
   25.4350   17.6910   25.2960 C   0  0  0  0  0  0  0  0  0  0  0  0
   23.8700   10.7920   20.9260 C   0  0  0  0  0  0  0  0  0  0  0  0
   23.7120   12.5220   19.2320 C   0  0  0  0  0  0  0  0  0  0  0  0
   25.6390   11.1160   19.2860 C   0  0  0  0  0  0  0  0  0  0  0  0
   27.1750   13.4880   23.6660 C   0  0  0  0  0  0  0  0  0  0  0  0
   23.6640   13.1990   23.8080 C   0  0  0  0  0  0  0  0  0  0  0  0
   27.2350   14.1150   21.3400 C   0  0  0  0  0  0  0  0  0  0  0  0
   27.5580   15.1550   21.2900 H   0  0  0  0  0  0  0  0  0  0  0  0
   27.3370   13.6550   20.3570 H   0  0  0  0  0  0  0  0  0  0  0  0
   20.4890   11.9020   25.1990 C   0  0  0  0  0  0  0  0  0  0  0  0
   20.8500   12.9300   25.1550 H   0  0  0  0  0  0  0  0  0  0  0  0
   20.0890   11.6150   24.2260 H   0  0  0  0  0  0  0  0  0  0  0  0
   25.8080   13.9890   21.8800 C   0  0  0  0  0  0  0  0  0  0  0  0
   25.3190   13.1130   21.4530 H   0  0  0  0  0  0  0  0  0  0  0  0
   25.2320   14.8820   21.6350 H   0  0  0  0  0  0  0  0  0  0  0  0
   20.1540   11.0320   27.3770 C   0  0  0  0  0  0  0  0  0  0  0  0
   19.4610   10.5130   28.0390 H   0  0  0  0  0  0  0  0  0  0  0  0
   20.7690   11.7180   27.9600 H   0  0  0  0  0  0  0  0  0  0  0  0
   19.4070   11.7700   26.2720 C   0  0  3  0  0  0  0  0  0  0  0  0
   18.9590   12.7220   26.5570 H   0  0  0  0  0  0  0  0  0  0  0  0
   21.6380   10.9530   25.6010 C   0  0  3  0  0  0  0  0  0  0  0  0
   22.4980   11.5110   25.9720 H   0  0  0  0  0  0  0  0  0  0  0  0
   27.9980   13.3320   22.4170 C   0  0  3  0  0  0  0  0  0  0  0  0
   29.0320   13.6410   22.5690 H   0  0  0  0  0  0  0  0  0  0  0  0
   16.0490    9.3610   24.5570 C   0  0  0  0  0  0  0  0  0  0  0  0
   15.6890    8.8420   23.6690 H   0  0  0  0  0  0  0  0  0  0  0  0
   15.2230    9.5050   25.2530 H   0  0  0  0  0  0  0  0  0  0  0  0
   16.8280    8.7670   25.0350 H   0  0  0  0  0  0  0  0  0  0  0  0
   25.5880   16.1920   25.2840 C   0  0  0  0  0  0  0  0  0  0  0  0
   25.5430   15.8240   26.3090 H   0  0  0  0  0  0  0  0  0  0  0  0
   26.5550   15.9390   24.8500 H   0  0  0  0  0  0  0  0  0  0  0  0
   23.2770   10.0620   22.1220 C   0  0  0  0  0  0  0  0  0  0  0  0
   24.0490    9.4200   22.5450 H   0  0  0  0  0  0  0  0  0  0  0  0
   22.4480    9.4490   21.7690 H   0  0  0  0  0  0  0  0  0  0  0  0
   27.8650   11.8720   21.9640 C   0  0  0  0  0  0  0  0  0  0  0  0
   27.2960   11.8870   21.0340 H   0  0  0  0  0  0  0  0  0  0  0  0
   27.4200   11.3920   22.8360 H   0  0  0  0  0  0  0  0  0  0  0  0
   16.6220   10.7260   24.1550 C   0  0  0  0  0  0  0  0  0  0  0  0
   15.8370   11.3080   23.6720 H   0  0  0  0  0  0  0  0  0  0  0  0
   17.4420   10.5700   23.4540 H   0  0  0  0  0  0  0  0  0  0  0  0
   24.4840   15.5150   24.4650 C   0  0  0  0  0  0  0  0  0  0  0  0
   24.4070   15.9970   23.4900 H   0  0  0  0  0  0  0  0  0  0  0  0
   23.5340   15.6050   24.9910 H   0  0  0  0  0  0  0  0  0  0  0  0
   17.1490   11.5140   25.3650 C   0  0  0  0  0  0  0  0  0  0  0  0
   16.4130   11.4910   26.1690 H   0  0  0  0  0  0  0  0  0  0  0  0
   17.3390   12.5480   25.0770 H   0  0  0  0  0  0  0  0  0  0  0  0
   24.8240   14.0400   24.2780 C   0  0  3  0  0  0  0  0  0  0  0  0
   25.1090   13.7090   25.2770 H   0  0  0  0  0  0  0  0  0  0  0  0
   22.2260   10.1380   24.4290 C   0  0  3  0  0  0  0  0  0  0  0  0
   23.1120    9.6280   24.8060 H   0  0  0  0  0  0  0  0  0  0  0  0
   29.0960   11.0120   21.7030 C   0  0  0  0  0  0  0  0  0  0  0  0
   29.7880   11.0740   22.5430 H   0  0  0  0  0  0  0  0  0  0  0  0
   29.6680   11.3510   20.8390 H   0  0  0  0  0  0  0  0  0  0  0  0
   28.5690    9.6170   21.4800 C   0  0  0  0  0  0  0  0  0  0  0  0
   29.7210    8.6820   21.2100 C   0  0  0  0  0  0  0  0  0  0  0  0
   29.3400    7.6730   21.0490 H   0  0  0  0  0  0  0  0  0  0  0  0
   30.3970    8.6820   22.0660 H   0  0  0  0  0  0  0  0  0  0  0  0
   30.2590    9.0140   20.3220 H   0  0  0  0  0  0  0  0  0  0  0  0
   27.8930    9.6160   20.6240 H   0  0  0  0  0  0  0  0  0  0  0  0
   28.0310    9.2850   22.3680 H   0  0  0  0  0  0  0  0  0  0  0  0
   22.7500   10.9840   23.2440 C   0  0  3  0  0  0  0  0  0  0  0  0
   21.9310   11.5870   22.8520 H   0  0  0  0  0  0  0  0  0  0  0  0
   21.0040   10.0590   26.6180 N   0  3  0  0  0  0  0  0  0  0  0  0
   20.4440    9.3410   26.1810 H   0  0  0  0  0  0  0  0  0  0  0  0
   21.6960    9.6290   27.2150 H   0  0  0  0  0  0  0  0  0  0  0  0
   25.9260   13.8440   23.3410 N   0  0  0  0  0  0  0  0  0  0  0  0
   23.8270   11.8630   23.7040 N   0  0  0  0  0  0  0  0  0  0  0  0
   24.7190   11.4580   23.9510 H   0  0  0  0  0  0  0  0  0  0  0  0
   27.5680   13.2710   24.7900 O   0  0  0  0  0  0  0  0  0  0  0  0
   22.5950   13.7100   23.5250 O   0  0  0  0  0  0  0  0  0  0  0  0
   21.2320    9.2070   23.9900 O   0  0  0  0  0  0  0  0  0  0  0  0
   20.4810    9.7130   23.6710 H   0  0  0  0  0  0  0  0  0  0  0  0
   18.3730   10.8990   25.8080 O   0  0  0  0  0  0  0  0  0  0  0  0
   23.0210   13.5220   18.6820 F   0  0  0  0  0  0  0  0  0  0  0  0
   26.8390   10.7710   18.7780 F   0  0  0  0  0  0  0  0  0  0  0  0
  1  2  1  0  0  0  0
  1  3  2  0  0  0  0
  1  5  1  0  0  0  0
  3  4  1  0  0  0  0
  3  7  1  0  0  0  0
  5  6  1  0  0  0  0
  5  9  2  0  0  0  0
  7  8  1  0  0  0  0
  7 17  2  0  0  0  0
  9 10  1  0  0  0  0
  9 17  1  0  0  0  0
 11 12  1  0  0  0  0
 11 18  2  0  0  0  0
 11 19  1  0  0  0  0
 13 14  1  0  0  0  0
 13 18  1  0  0  0  0
 13 20  2  0  0  0  0
 15 16  1  0  0  0  0
 15 19  2  0  0  0  0
 15 20  1  0  0  0  0
 17 45  1  0  0  0  0
 18 48  1  0  0  0  0
 19 90  1  0  0  0  0
 20 91  1  0  0  0  0
 21 39  1  0  0  0  0
 21 82  1  0  0  0  0
 21 85  2  0  0  0  0
 22 63  1  0  0  0  0
 22 83  1  0  0  0  0
 22 86  2  0  0  0  0
 23 24  1  0  0  0  0
 23 25  1  0  0  0  0
 23 29  1  0  0  0  0
 23 39  1  0  0  0  0
 26 27  1  0  0  0  0
 26 28  1  0  0  0  0
 26 35  1  0  0  0  0
 26 37  1  0  0  0  0
 29 30  1  0  0  0  0
 29 31  1  0  0  0  0
 29 82  1  0  0  0  0
 32 33  1  0  0  0  0
 32 34  1  0  0  0  0
 32 35  1  0  0  0  0
 32 79  1  0  0  0  0
 35 36  1  0  0  0  0
 35 89  1  0  0  0  0
 37 38  1  0  0  0  0
 37 65  1  0  0  0  0
 37 79  1  0  0  0  0
 39 40  1  0  0  0  0
 39 51  1  0  0  0  0
 41 42  1  0  0  0  0
 41 43  1  0  0  0  0
 41 44  1  0  0  0  0
 41 54  1  0  0  0  0
 45 46  1  0  0  0  0
 45 47  1  0  0  0  0
 45 57  1  0  0  0  0
 48 49  1  0  0  0  0
 48 50  1  0  0  0  0
 48 77  1  0  0  0  0
 51 52  1  0  0  0  0
 51 53  1  0  0  0  0
 51 67  1  0  0  0  0
 54 55  1  0  0  0  0
 54 56  1  0  0  0  0
 54 60  1  0  0  0  0
 57 58  1  0  0  0  0
 57 59  1  0  0  0  0
 57 63  1  0  0  0  0
 60 61  1  0  0  0  0
 60 62  1  0  0  0  0
 60 89  1  0  0  0  0
 63 64  1  0  0  0  0
 63 82  1  0  0  0  0
 65 66  1  0  0  0  0
 65 77  1  0  0  0  0
 65 87  1  0  0  0  0
 67 68  1  0  0  0  0
 67 69  1  0  0  0  0
 67 70  1  0  0  0  0
 70 71  1  0  0  0  0
 70 75  1  0  0  0  0
 70 76  1  0  0  0  0
 71 72  1  0  0  0  0
 71 73  1  0  0  0  0
 71 74  1  0  0  0  0
 77 78  1  0  0  0  0
 77 83  1  0  0  0  0
 79 80  1  0  0  0  0
 79 81  1  0  0  0  0
 83 84  1  0  0  0  0
 87 88  1  0  0  0  0
M  CHG  1  79   1
M  END
>  <PARENT_CMPD_ID>
CHEMBL1915992

>  <STANDARD_TYPE>
IC50

>  <RELATION>
=

>  <STANDARD_VALUE>
19

>  <STANDARD_UNITS>
nM

>  <COMPOUND_KEY>
28c

>  <PUBMED_ID>
21782431

>  <JOURNAL>
Bioorg.Med.Chem.Lett.

>  <YEAR>
2011

>  <VOLUME>
21

>  <FIRST_PAGE>
6916

>  <Company>
BMS

>  <idx>
484

>  <Model>
Valid

>  <target>
7.7212462

>  <des_pred_mlr>
7.3607998

>  <RF_Canvas>
7.5304604

>  <DNN_Canvas>
7.7141495

>  <pred_CoMFA>
8.6576004

>  <pred_COMSIA>
8.5200005

>  <pred_abm5>
8.8971863

>  <pred_ff8>
7.6545405

>  <pred_gau6>
8.4398394

>  <CID>
BACE_484

>  <active>
1

>  <des_class_bayes>
1

>  <maacs_class_bayes>
1

>  <radial_class_bayes>
0

>  <dend_class_bayes>
1

>  <molprint_class_bayes>
1

>  <RF_canvas>
1

>  <DNN_canvas>
1

$$$$
23537249_(R)-34
  MOE2015           3D

 45 48  0  0  1  0  0  0  0  0999 V2000
   25.2090   10.9850   20.0180 C   0  0  0  0  0  0  0  0  0  0  0  0
   24.7340   11.1530   18.7170 C   0  0  0  0  0  0  0  0  0  0  0  0
   23.3660   11.2260   18.4590 C   0  0  0  0  0  0  0  0  0  0  0  0
   22.4460   11.1270   19.4920 C   0  0  0  0  0  0  0  0  0  0  0  0
   22.8910   10.9990   20.7990 C   0  0  0  0  0  0  0  0  0  0  0  0
   24.2670   10.9120   21.0410 C   0  0  0  0  0  0  0  0  0  0  0  0
   21.1290   11.1660   19.1360 O   0  0  0  0  0  0  0  0  0  0  0  0
   20.2160   10.6280   20.1040 C   0  0  0  0  0  0  0  0  0  0  0  0
   20.4900   11.1910   21.4980 C   0  0  0  0  0  0  0  0  0  0  0  0
   21.9280   10.9590   21.9560 C   0  0  3  0  0  0  0  0  0  0  0  0
   26.6340   10.9280   20.3340 C   0  0  0  0  0  0  0  0  0  0  0  0
   22.2900   11.9990   23.0050 C   0  0  0  0  0  0  0  0  0  0  0  0
   22.5710   11.3080   24.1430 N   0  0  0  0  0  0  0  0  0  0  0  0
   22.4010    9.9910   23.9040 C   0  0  0  0  0  0  0  0  0  0  0  0
   22.0240    9.6760   22.7040 N   0  0  0  0  0  0  0  0  0  0  0  0
   22.3420   13.2060   22.8360 O   0  0  0  0  0  0  0  0  0  0  0  0
   22.9870   11.9270   25.3750 C   0  0  0  0  0  0  0  0  0  0  0  0
   22.6210    9.0700   24.8670 N   0  0  0  0  0  0  0  0  0  0  0  0
   27.5420   11.8210   19.7670 C   0  0  0  0  0  0  0  0  0  0  0  0
   28.8830   11.7790   20.1290 C   0  0  0  0  0  0  0  0  0  0  0  0
   30.0070   12.8780   19.4410 Cl  0  0  0  0  0  0  0  0  0  0  0  0
   29.2910   10.8450   21.0610 C   0  0  0  0  0  0  0  0  0  0  0  0
   28.4580    9.9610   21.6410 N   0  0  0  0  0  0  0  0  0  0  0  0
   27.1620   10.0200   21.2550 C   0  0  0  0  0  0  0  0  0  0  0  0
   18.8260   11.0880   19.6660 C   0  0  0  0  0  0  0  0  0  0  0  0
   20.2390    9.1010   20.0520 C   0  0  0  0  0  0  0  0  0  0  0  0
   25.4230   11.2150   17.8770 H   0  0  0  0  0  0  0  0  0  0  0  0
   23.0170   11.3410   17.4350 H   0  0  0  0  0  0  0  0  0  0  0  0
   24.6120   10.8060   22.0690 H   0  0  0  0  0  0  0  0  0  0  0  0
   19.7770   10.7890   22.2290 H   0  0  0  0  0  0  0  0  0  0  0  0
   20.3060   12.2750   21.4620 H   0  0  0  0  0  0  0  0  0  0  0  0
   23.0340   13.0140   25.2780 H   0  0  0  0  0  0  0  0  0  0  0  0
   23.9710   11.5380   25.6510 H   0  0  0  0  0  0  0  0  0  0  0  0
   22.2780   11.6570   26.1640 H   0  0  0  0  0  0  0  0  0  0  0  0
   22.4810    8.0940   24.6380 H   0  0  0  0  0  0  0  0  0  0  0  0
   22.9100    9.3000   25.8060 H   0  0  0  0  0  0  0  0  0  0  0  0
   27.2080   12.5720   19.0540 H   0  0  0  0  0  0  0  0  0  0  0  0
   30.3270   10.7770   21.3810 H   0  0  0  0  0  0  0  0  0  0  0  0
   26.5290    9.2770   21.7370 H   0  0  0  0  0  0  0  0  0  0  0  0
   18.7670   12.1820   19.6260 H   0  0  0  0  0  0  0  0  0  0  0  0
   18.0430   10.7260   20.3420 H   0  0  0  0  0  0  0  0  0  0  0  0
   18.5960   10.7360   18.6530 H   0  0  0  0  0  0  0  0  0  0  0  0
   21.2290    8.6890   20.2720 H   0  0  0  0  0  0  0  0  0  0  0  0
   19.9880    8.7440   19.0460 H   0  0  0  0  0  0  0  0  0  0  0  0
   19.5260    8.6640   20.7590 H   0  0  0  0  0  0  0  0  0  0  0  0
  1  2  1  0  0  0  0
  1  6  2  0  0  0  0
  1 11  1  0  0  0  0
  2  3  2  0  0  0  0
  2 27  1  0  0  0  0
  3  4  1  0  0  0  0
  3 28  1  0  0  0  0
  4  5  2  0  0  0  0
  4  7  1  0  0  0  0
  5  6  1  0  0  0  0
  5 10  1  0  0  0  0
  6 29  1  0  0  0  0
  7  8  1  0  0  0  0
  8  9  1  0  0  0  0
  8 25  1  0  0  0  0
  8 26  1  0  0  0  0
  9 10  1  0  0  0  0
  9 30  1  0  0  0  0
  9 31  1  0  0  0  0
 10 12  1  0  0  0  0
 10 15  1  0  0  0  0
 11 19  1  0  0  0  0
 11 24  2  0  0  0  0
 12 13  1  0  0  0  0
 12 16  2  0  0  0  0
 13 14  1  0  0  0  0
 13 17  1  0  0  0  0
 14 15  2  0  0  0  0
 14 18  1  0  0  0  0
 17 32  1  0  0  0  0
 17 33  1  0  0  0  0
 17 34  1  0  0  0  0
 18 35  1  0  0  0  0
 18 36  1  0  0  0  0
 19 20  2  0  0  0  0
 19 37  1  0  0  0  0
 20 21  1  0  0  0  0
 20 22  1  0  0  0  0
 22 23  2  0  0  0  0
 22 38  1  0  0  0  0
 23 24  1  0  0  0  0
 24 39  1  0  0  0  0
 25 40  1  0  0  0  0
 25 41  1  0  0  0  0
 25 42  1  0  0  0  0
 26 43  1  0  0  0  0
 26 44  1  0  0  0  0
 26 45  1  0  0  0  0
M  END
>  <PARENT_CMPD_ID>
23537249_(R)-34

>  <STANDARD_TYPE>
IC50

>  <RELATION>
=

>  <STANDARD_VALUE>
0.018999999

>  <STANDARD_UNITS>
uM

>  <COMPOUND_KEY>
(R)-34

>  <PUBMED_ID>
23537249

>  <JOURNAL>
J.Med.Chem.

>  <YEAR>
2013

>  <VOLUME>
56

>  <FIRST_PAGE>
3379

>  <Company>
Array

>  <idx>
485

>  <Model>
Valid

>  <target>
7.7212462

>  <des_pred_mlr>
6.40698

>  <RF_Canvas>
7.2889929

>  <DNN_Canvas>
7.560205

>  <pred_CoMFA>
6.6919999

>  <pred_COMSIA>
6.4506998

>  <pred_abm5>
6.5187783

>  <pred_ff8>
5.6667128

>  <pred_gau6>
6.8618178

>  <CID>
BACE_485

>  <active>
1

>  <des_class_bayes>
0

>  <maacs_class_bayes>
0

>  <radial_class_bayes>
0

>  <dend_class_bayes>
1

>  <molprint_class_bayes>
1

>  <RF_canvas>
1

>  <DNN_canvas>
1

$$$$
23590342_14v
  MOE2015           3D

 42 44  0  0  1  0  0  0  0  0999 V2000
   22.5820   12.2100   23.3700 C   0  0  0  0  0  0  0  0  0  0  0  0
   21.5510   11.7780   22.3670 C   0  0  0  0  0  0  0  0  0  0  0  0
   22.9060   11.1740   24.3050 O   0  0  0  0  0  0  0  0  0  0  0  0
   22.6810    9.8850   23.9710 C   0  0  0  0  0  0  0  0  0  0  0  0
   22.2350    9.4610   22.8470 N   0  0  0  0  0  0  0  0  0  0  0  0
   21.9250   10.4160   21.7700 C   0  0  3  0  0  0  0  0  0  0  0  0
   23.0940   10.5570   20.7850 C   0  0  0  0  0  0  0  0  0  0  0  0
   24.4150   10.2530   21.1630 C   0  0  0  0  0  0  0  0  0  0  0  0
   25.5020   10.4690   20.3090 C   0  0  0  0  0  0  0  0  0  0  0  0
   25.2530   10.9470   19.0260 C   0  0  0  0  0  0  0  0  0  0  0  0
   23.9600   11.2330   18.6210 C   0  0  0  0  0  0  0  0  0  0  0  0
   22.9070   11.0530   19.4960 C   0  0  0  0  0  0  0  0  0  0  0  0
   21.6920   11.3910   19.0650 F   0  0  0  0  0  0  0  0  0  0  0  0
   22.9870    9.0460   24.9750 N   0  0  0  0  0  0  0  0  0  0  0  0
   20.6860    9.8160   21.0810 C   0  0  0  0  0  0  0  0  0  0  0  0
   26.7940   10.2200   20.8150 N   0  0  0  0  0  0  0  0  0  0  0  0
   27.9910   10.5470   20.2040 C   0  0  0  0  0  0  0  0  0  0  0  0
   29.1600   10.1880   21.0050 C   0  0  0  0  0  0  0  0  0  0  0  0
   28.0840   11.1340   19.1350 O   0  0  0  0  0  0  0  0  0  0  0  0
   29.0440    9.3570   22.0600 N   0  0  0  0  0  0  0  0  0  0  0  0
   20.3560   11.7020   23.0040 F   0  0  0  0  0  0  0  0  0  0  0  0
   21.4080   12.7240   21.4190 F   0  0  0  0  0  0  0  0  0  0  0  0
   22.2010   13.0580   23.9490 H   0  0  0  0  0  0  0  0  0  0  0  0
   23.5080   12.5460   22.8920 H   0  0  0  0  0  0  0  0  0  0  0  0
   24.6160    9.8670   22.1590 H   0  0  0  0  0  0  0  0  0  0  0  0
   26.0470   11.1110   18.3050 H   0  0  0  0  0  0  0  0  0  0  0  0
   23.7690   11.6170   17.6220 H   0  0  0  0  0  0  0  0  0  0  0  0
   22.8670    8.0520   24.8480 H   0  0  0  0  0  0  0  0  0  0  0  0
   23.3410    9.4030   25.8500 H   0  0  0  0  0  0  0  0  0  0  0  0
   19.9330    9.5140   21.8210 H   0  0  0  0  0  0  0  0  0  0  0  0
   20.9440    8.9170   20.5080 H   0  0  0  0  0  0  0  0  0  0  0  0
   20.1880   10.5190   20.4070 H   0  0  0  0  0  0  0  0  0  0  0  0
   26.8890    9.7680   21.7220 H   0  0  0  0  0  0  0  0  0  0  0  0
   30.3120    9.2640   22.5320 N   0  0  0  0  0  0  0  0  0  0  0  0
   30.6380    8.4200   23.6640 C   0  0  0  0  0  0  0  0  0  0  0  0
   30.7700    7.1200   23.2960 F   0  0  0  0  0  0  0  0  0  0  0  0
   29.8480    8.5090   24.4140 H   0  0  0  0  0  0  0  0  0  0  0  0
   31.8250    8.7780   24.2290 F   0  0  0  0  0  0  0  0  0  0  0  0
   31.2080   10.0240   21.8430 C   0  0  0  0  0  0  0  0  0  0  0  0
   32.2550   10.0640   22.1110 H   0  0  0  0  0  0  0  0  0  0  0  0
   30.4970   10.6240   20.8430 C   0  0  0  0  0  0  0  0  0  0  0  0
   31.1150   11.6830   19.6820 Cl  0  0  0  0  0  0  0  0  0  0  0  0
  1  2  1  0  0  0  0
  1  3  1  0  0  0  0
  1 23  1  0  0  0  0
  1 24  1  0  0  0  0
  2  6  1  0  0  0  0
  2 21  1  0  0  0  0
  2 22  1  0  0  0  0
  3  4  1  0  0  0  0
  4  5  2  0  0  0  0
  4 14  1  0  0  0  0
  5  6  1  0  0  0  0
  6  7  1  0  0  0  0
  6 15  1  0  0  0  0
  7  8  1  0  0  0  0
  7 12  2  0  0  0  0
  8  9  2  0  0  0  0
  8 25  1  0  0  0  0
  9 10  1  0  0  0  0
  9 16  1  0  0  0  0
 10 11  2  0  0  0  0
 10 26  1  0  0  0  0
 11 12  1  0  0  0  0
 11 27  1  0  0  0  0
 12 13  1  0  0  0  0
 14 28  1  0  0  0  0
 14 29  1  0  0  0  0
 15 30  1  0  0  0  0
 15 31  1  0  0  0  0
 15 32  1  0  0  0  0
 16 17  1  0  0  0  0
 16 33  1  0  0  0  0
 17 18  1  0  0  0  0
 17 19  2  0  0  0  0
 18 20  2  0  0  0  0
 18 41  1  0  0  0  0
 20 34  1  0  0  0  0
 34 35  1  0  0  0  0
 34 39  1  0  0  0  0
 35 36  1  0  0  0  0
 35 37  1  0  0  0  0
 35 38  1  0  0  0  0
 39 40  1  0  0  0  0
 39 41  2  0  0  0  0
 41 42  1  0  0  0  0
M  END
>  <PARENT_CMPD_ID>
23590342_14v

>  <STANDARD_TYPE>
IC50

>  <RELATION>
=

>  <STANDARD_VALUE>
0.018999999

>  <STANDARD_UNITS>
uM

>  <COMPOUND_KEY>
14v

>  <PUBMED_ID>
23590342

>  <JOURNAL>
J.Med.Chem.

>  <YEAR>
2013

>  <VOLUME>
56

>  <FIRST_PAGE>
3980

>  <Company>
Roche

>  <idx>
486

>  <Model>
Valid

>  <target>
7.7212462

>  <des_pred_mlr>
7.1251202

>  <RF_Canvas>
7.3139296

>  <DNN_Canvas>
7.3281398

>  <pred_CoMFA>
6.8971

>  <pred_COMSIA>
6.5889001

>  <pred_abm5>
6.5554967

>  <pred_ff8>
6.0573196

>  <pred_gau6>
6.9901562

>  <CID>
BACE_486

>  <active>
1

>  <des_class_bayes>
1

>  <maacs_class_bayes>
1

>  <radial_class_bayes>
1

>  <dend_class_bayes>
1

>  <molprint_class_bayes>
1

>  <RF_canvas>
1

>  <DNN_canvas>
1

$$$$
23981898_17m
  MOE2015           3D

 74 76  0  0  1  0  0  0  0  0999 V2000
   28.6390    9.0450   20.9930 F   0  0  0  0  0  0  0  0  0  0  0  0
   29.2860   10.2160   20.8550 C   0  0  0  0  0  0  0  0  0  0  0  0
   30.0780   10.3570   21.9330 F   0  0  0  0  0  0  0  0  0  0  0  0
   30.0850   10.1210   19.7800 F   0  0  0  0  0  0  0  0  0  0  0  0
   28.3100   11.3700   20.7400 C   0  0  3  0  0  0  0  0  0  0  0  0
   27.5340   11.1990   19.5410 O   0  0  0  0  0  0  0  0  0  0  0  0
   26.1720   11.2290   19.7070 C   0  0  0  0  0  0  0  0  0  0  0  0
   25.4430   12.0390   18.8320 C   0  0  0  0  0  0  0  0  0  0  0  0
   24.0560   12.0590   18.9650 C   0  0  0  0  0  0  0  0  0  0  0  0
   23.4000   11.3110   19.9350 C   0  0  0  0  0  0  0  0  0  0  0  0
   24.1270   10.5010   20.8050 C   0  0  0  0  0  0  0  0  0  0  0  0
   25.5160   10.4410   20.6590 C   0  0  0  0  0  0  0  0  0  0  0  0
   23.4470    9.7750   21.9400 C   0  0  0  0  0  0  0  0  0  0  0  0
   22.8990   10.7410   23.0090 C   0  0  3  0  0  0  0  0  0  0  0  0
   22.2320   10.0070   24.1940 C   0  0  3  0  0  0  0  0  0  0  0  0
   21.6280   10.9700   25.2410 C   0  0  3  0  0  0  0  0  0  0  0  0
   22.6180   11.9790   25.7980 C   0  0  0  0  0  0  0  0  0  0  0  0
   23.3020   13.0270   24.5030 S   0  0  0  0  0  0  0  0  0  0  0  0
   23.9970   11.6700   23.5290 C   0  0  0  0  0  0  0  0  0  0  0  0
   22.1680   13.6030   23.7130 O   0  0  0  0  0  0  0  0  0  0  0  0
   21.0970   10.1040   26.3790 N   0  3  0  0  0  0  0  0  0  0  0  0
   20.1950   10.7800   27.3680 C   0  0  0  0  0  0  0  0  0  0  0  0
   19.0340   11.4240   26.7350 C   0  0  0  0  0  0  0  0  0  0  0  0
   18.9320   12.7520   26.6470 N   0  0  0  0  0  0  0  0  0  0  0  0
   21.1880    9.1310   23.7490 O   0  0  0  0  0  0  0  0  0  0  0  0
   23.3290   12.8310   18.1510 F   0  0  0  0  0  0  0  0  0  0  0  0
   26.0840   12.8050   17.8690 N   0  0  0  0  0  0  0  0  0  0  0  0
   29.0880   12.6800   20.6410 C   0  0  0  0  0  0  0  0  0  0  0  0
   28.1660   13.7690   20.6180 O   0  0  0  0  0  0  0  0  0  0  0  0
   28.8150   15.0200   20.7840 C   0  0  0  0  0  0  0  0  0  0  0  0
   27.6810   11.4130   21.6380 H   0  0  0  0  0  0  0  0  0  0  0  0
   22.3190   11.3870   20.0080 H   0  0  0  0  0  0  0  0  0  0  0  0
   26.0930    9.7810   21.3020 H   0  0  0  0  0  0  0  0  0  0  0  0
   24.1450    9.0680   22.4050 H   0  0  0  0  0  0  0  0  0  0  0  0
   22.6340    9.1680   21.5230 H   0  0  0  0  0  0  0  0  0  0  0  0
   22.1180   11.3380   22.5160 H   0  0  0  0  0  0  0  0  0  0  0  0
   22.9800    9.3680   24.6810 H   0  0  0  0  0  0  0  0  0  0  0  0
   20.7600   11.4640   24.7900 H   0  0  0  0  0  0  0  0  0  0  0  0
   23.4500   11.4830   26.3120 H   0  0  0  0  0  0  0  0  0  0  0  0
   22.1400   12.6510   26.5170 H   0  0  0  0  0  0  0  0  0  0  0  0
   24.5390   12.1680   22.7220 H   0  0  0  0  0  0  0  0  0  0  0  0
   24.7320   11.1340   24.1390 H   0  0  0  0  0  0  0  0  0  0  0  0
   21.8670    9.6410   26.8800 H   0  0  0  0  0  0  0  0  0  0  0  0
   20.5840    9.3340   25.9130 H   0  0  0  0  0  0  0  0  0  0  0  0
   20.8080   11.4840   27.9380 H   0  0  0  0  0  0  0  0  0  0  0  0
   19.8690    9.9940   28.0580 H   0  0  0  0  0  0  0  0  0  0  0  0
   20.6650    9.5790   23.0560 H   0  0  0  0  0  0  0  0  0  0  0  0
   25.5500   13.3720   17.2240 H   0  0  0  0  0  0  0  0  0  0  0  0
   27.0950   12.7880   17.8280 H   0  0  0  0  0  0  0  0  0  0  0  0
   29.6770   12.7140   19.7170 H   0  0  0  0  0  0  0  0  0  0  0  0
   29.7600   12.7860   21.5010 H   0  0  0  0  0  0  0  0  0  0  0  0
   28.0610   15.8100   20.7220 H   0  0  0  0  0  0  0  0  0  0  0  0
   29.5530   15.1770   19.9920 H   0  0  0  0  0  0  0  0  0  0  0  0
   29.2960   15.0740   21.7650 H   0  0  0  0  0  0  0  0  0  0  0  0
   17.9960   10.7720   26.0580 C   0  0  0  0  0  0  0  0  0  0  0  0
   17.8530    9.7090   25.9510 H   0  0  0  0  0  0  0  0  0  0  0  0
   17.7900   12.9750   25.8940 O   0  0  0  0  0  0  0  0  0  0  0  0
   17.2460   11.7810   25.5290 C   0  0  0  0  0  0  0  0  0  0  0  0
   16.0320   11.8590   24.7010 C   0  0  0  0  0  0  0  0  0  0  0  0
   16.2310   12.5710   23.8870 H   0  0  0  0  0  0  0  0  0  0  0  0
   15.2440   12.3200   25.3140 H   0  0  0  0  0  0  0  0  0  0  0  0
   15.4910   10.5470   24.0920 C   0  0  0  0  0  0  0  0  0  0  0  0
   15.0400    9.5350   25.1480 C   0  0  0  0  0  0  0  0  0  0  0  0
   14.2480   10.9290   23.2720 C   0  0  0  0  0  0  0  0  0  0  0  0
   16.4940    9.8890   23.1430 C   0  0  0  0  0  0  0  0  0  0  0  0
   14.3750   10.0020   25.8840 H   0  0  0  0  0  0  0  0  0  0  0  0
   15.8670    9.0780   25.6940 H   0  0  0  0  0  0  0  0  0  0  0  0
   14.4850    8.7080   24.6880 H   0  0  0  0  0  0  0  0  0  0  0  0
   13.4780   11.3890   23.9030 H   0  0  0  0  0  0  0  0  0  0  0  0
   13.7980   10.0520   22.7930 H   0  0  0  0  0  0  0  0  0  0  0  0
   14.4970   11.6430   22.4780 H   0  0  0  0  0  0  0  0  0  0  0  0
   17.3790    9.5110   23.6600 H   0  0  0  0  0  0  0  0  0  0  0  0
   16.8360   10.5960   22.3780 H   0  0  0  0  0  0  0  0  0  0  0  0
   16.0440    9.0360   22.6210 H   0  0  0  0  0  0  0  0  0  0  0  0
  1  2  1  0  0  0  0
  2  3  1  0  0  0  0
  2  4  1  0  0  0  0
  2  5  1  0  0  0  0
  5  6  1  0  0  0  0
  5 28  1  0  0  0  0
  5 31  1  0  0  0  0
  6  7  1  0  0  0  0
  7  8  1  0  0  0  0
  7 12  2  0  0  0  0
  8  9  2  0  0  0  0
  8 27  1  0  0  0  0
  9 10  1  0  0  0  0
  9 26  1  0  0  0  0
 10 11  2  0  0  0  0
 10 32  1  0  0  0  0
 11 12  1  0  0  0  0
 11 13  1  0  0  0  0
 12 33  1  0  0  0  0
 13 14  1  0  0  0  0
 13 34  1  0  0  0  0
 13 35  1  0  0  0  0
 14 15  1  0  0  0  0
 14 19  1  0  0  0  0
 14 36  1  0  0  0  0
 15 16  1  0  0  0  0
 15 25  1  0  0  0  0
 15 37  1  0  0  0  0
 16 17  1  0  0  0  0
 16 21  1  0  0  0  0
 16 38  1  0  0  0  0
 17 18  1  0  0  0  0
 17 39  1  0  0  0  0
 17 40  1  0  0  0  0
 18 19  1  0  0  0  0
 18 20  2  0  0  0  0
 19 41  1  0  0  0  0
 19 42  1  0  0  0  0
 21 22  1  0  0  0  0
 21 43  1  0  0  0  0
 21 44  1  0  0  0  0
 22 23  1  0  0  0  0
 22 45  1  0  0  0  0
 22 46  1  0  0  0  0
 23 24  2  0  0  0  0
 23 55  1  0  0  0  0
 24 57  1  0  0  0  0
 25 47  1  0  0  0  0
 27 48  1  0  0  0  0
 27 49  1  0  0  0  0
 28 29  1  0  0  0  0
 28 50  1  0  0  0  0
 28 51  1  0  0  0  0
 29 30  1  0  0  0  0
 30 52  1  0  0  0  0
 30 53  1  0  0  0  0
 30 54  1  0  0  0  0
 55 56  1  0  0  0  0
 55 58  2  0  0  0  0
 57 58  1  0  0  0  0
 58 59  1  0  0  0  0
 59 60  1  0  0  0  0
 59 61  1  0  0  0  0
 59 62  1  0  0  0  0
 62 63  1  0  0  0  0
 62 64  1  0  0  0  0
 62 65  1  0  0  0  0
 63 66  1  0  0  0  0
 63 67  1  0  0  0  0
 63 68  1  0  0  0  0
 64 69  1  0  0  0  0
 64 70  1  0  0  0  0
 64 71  1  0  0  0  0
 65 72  1  0  0  0  0
 65 73  1  0  0  0  0
 65 74  1  0  0  0  0
M  CHG  1  21   1
M  END
>  <PARENT_CMPD_ID>
23981898_17m

>  <STANDARD_TYPE>
IC50

>  <RELATION>
=

>  <STANDARD_VALUE>
0.018999999

>  <STANDARD_UNITS>
uM

>  <COMPOUND_KEY>
17m

>  <PUBMED_ID>
23981898

>  <JOURNAL>
Bioorg.Med.Chem.Lett.

>  <YEAR>
2013

>  <VOLUME>
23

>  <FIRST_PAGE>
5300

>  <Company>
Novartis

>  <idx>
487

>  <Model>
Valid

>  <target>
7.7212462

>  <des_pred_mlr>
7.4457898

>  <RF_Canvas>
7.7494349

>  <DNN_Canvas>
8.348938

>  <pred_CoMFA>
8.4322996

>  <pred_COMSIA>
7.2528

>  <pred_abm5>
7.985291

>  <pred_ff8>
8.0993452

>  <pred_gau6>
8.2988377

>  <CID>
BACE_487

>  <active>
1

>  <des_class_bayes>
0

>  <maacs_class_bayes>
1

>  <radial_class_bayes>
1

>  <dend_class_bayes>
1

>  <molprint_class_bayes>
1

>  <RF_canvas>
1

>  <DNN_canvas>
1

$$$$
CHEMBL221597
  MOE2015           3D

 84 86  0  0  1  0  0  0  0  0999 V2000
   30.2720   10.8270   21.0190 C   0  0  0  0  0  0  0  0  0  0  0  0
   29.2810   11.8450   21.5210 C   0  0  0  0  0  0  0  0  0  0  0  0
   29.8450   13.2560   21.4340 C   0  0  0  0  0  0  0  0  0  0  0  0
   28.8510   14.2320   21.8560 N   0  0  0  0  0  0  0  0  0  0  0  0
   28.3390   15.1680   20.8700 C   0  0  0  0  0  0  0  0  0  0  0  0
   27.5320   14.5160   19.7790 C   0  0  0  0  0  0  0  0  0  0  0  0
   27.1420   15.5420   18.7320 C   0  0  0  0  0  0  0  0  0  0  0  0
   28.5360   14.3000   23.2060 C   0  0  0  0  0  0  0  0  0  0  0  0
   29.3530   14.0250   24.0790 O   0  0  0  0  0  0  0  0  0  0  0  0
   27.1660   14.6830   23.5910 C   0  0  0  0  0  0  0  0  0  0  0  0
   26.9700   15.8230   24.3610 C   0  0  0  0  0  0  0  0  0  0  0  0
   25.6900   16.1560   24.8000 C   0  0  0  0  0  0  0  0  0  0  0  0
   25.4660   17.4120   25.5740 C   0  0  0  0  0  0  0  0  0  0  0  0
   24.6170   15.3270   24.4710 C   0  0  0  0  0  0  0  0  0  0  0  0
   24.8190   14.1600   23.7370 C   0  0  0  0  0  0  0  0  0  0  0  0
   26.0980   13.8460   23.2740 C   0  0  0  0  0  0  0  0  0  0  0  0
   23.6440   13.2890   23.4710 C   0  0  0  0  0  0  0  0  0  0  0  0
   22.5050   13.7360   23.4010 O   0  0  0  0  0  0  0  0  0  0  0  0
   23.8990   11.9420   23.3570 N   0  0  0  0  0  0  0  0  0  0  0  0
   22.8660   10.9890   22.9610 C   0  0  3  0  0  0  0  0  0  0  0  0
   23.3950   10.0520   21.8640 C   0  0  0  0  0  0  0  0  0  0  0  0
   23.9220   10.8050   20.6710 C   0  0  0  0  0  0  0  0  0  0  0  0
   25.2350   10.6110   20.2470 C   0  0  0  0  0  0  0  0  0  0  0  0
   25.7310   11.3350   19.1760 C   0  0  0  0  0  0  0  0  0  0  0  0
   26.9960   11.1490   18.7970 F   0  0  0  0  0  0  0  0  0  0  0  0
   24.9510   12.2550   18.5080 C   0  0  0  0  0  0  0  0  0  0  0  0
   23.6520   12.4470   18.9280 C   0  0  0  0  0  0  0  0  0  0  0  0
   22.8860   13.3460   18.3090 F   0  0  0  0  0  0  0  0  0  0  0  0
   23.1280   11.7260   19.9880 C   0  0  0  0  0  0  0  0  0  0  0  0
   22.3590   10.2360   24.2010 C   0  0  1  0  0  0  0  0  0  0  0  0
   23.4520    9.7230   24.9610 O   0  0  0  0  0  0  0  0  0  0  0  0
   21.5440   11.1620   25.1020 C   0  0  0  0  0  0  0  0  0  0  0  0
   20.9020   10.3320   26.1750 N   0  3  0  0  0  0  0  0  0  0  0  0
   19.9670   11.0850   27.0650 C   0  0  0  0  0  0  0  0  0  0  0  0
   18.7630   11.6140   26.3340 C   0  0  0  0  0  0  0  0  0  0  0  0
   18.4690   12.9760   26.3350 C   0  0  0  0  0  0  0  0  0  0  0  0
   17.3860   13.4630   25.6120 C   0  0  0  0  0  0  0  0  0  0  0  0
   16.5870   12.5990   24.8710 C   0  0  0  0  0  0  0  0  0  0  0  0
   16.8590   11.2360   24.8630 C   0  0  0  0  0  0  0  0  0  0  0  0
   16.1750   10.2760   24.1750 O   0  0  0  0  0  0  0  0  0  0  0  0
   15.0920   10.7130   23.3740 C   0  0  0  0  0  0  0  0  0  0  0  0
   17.9320   10.7540   25.6110 C   0  0  0  0  0  0  0  0  0  0  0  0
   29.8510    9.8190   21.0900 H   0  0  0  0  0  0  0  0  0  0  0  0
   31.1950   10.8490   21.6070 H   0  0  0  0  0  0  0  0  0  0  0  0
   30.5300   11.0100   19.9710 H   0  0  0  0  0  0  0  0  0  0  0  0
   29.0110   11.6040   22.5560 H   0  0  0  0  0  0  0  0  0  0  0  0
   28.3580   11.7730   20.9360 H   0  0  0  0  0  0  0  0  0  0  0  0
   30.1760   13.4850   20.4150 H   0  0  0  0  0  0  0  0  0  0  0  0
   30.7220   13.3460   22.0870 H   0  0  0  0  0  0  0  0  0  0  0  0
   27.7430   15.9420   21.3670 H   0  0  0  0  0  0  0  0  0  0  0  0
   29.2100   15.6840   20.4460 H   0  0  0  0  0  0  0  0  0  0  0  0
   28.0950   13.7130   19.2920 H   0  0  0  0  0  0  0  0  0  0  0  0
   26.6310   14.0630   20.2050 H   0  0  0  0  0  0  0  0  0  0  0  0
   28.0260   15.9930   18.2720 H   0  0  0  0  0  0  0  0  0  0  0  0
   26.5370   16.3420   19.1710 H   0  0  0  0  0  0  0  0  0  0  0  0
   26.5530   15.0720   17.9390 H   0  0  0  0  0  0  0  0  0  0  0  0
   27.8200   16.4520   24.6180 H   0  0  0  0  0  0  0  0  0  0  0  0
   24.6170   17.3060   26.2590 H   0  0  0  0  0  0  0  0  0  0  0  0
   25.2660   18.2440   24.8920 H   0  0  0  0  0  0  0  0  0  0  0  0
   26.3410   17.6600   26.1840 H   0  0  0  0  0  0  0  0  0  0  0  0
   23.6130   15.5870   24.8050 H   0  0  0  0  0  0  0  0  0  0  0  0
   26.2790   12.9600   22.6730 H   0  0  0  0  0  0  0  0  0  0  0  0
   24.8210   11.5780   23.5660 H   0  0  0  0  0  0  0  0  0  0  0  0
   22.0160   11.5430   22.5430 H   0  0  0  0  0  0  0  0  0  0  0  0
   24.1880    9.4140   22.2730 H   0  0  0  0  0  0  0  0  0  0  0  0
   22.5970    9.3780   21.5270 H   0  0  0  0  0  0  0  0  0  0  0  0
   25.8930    9.9020   20.7430 H   0  0  0  0  0  0  0  0  0  0  0  0
   25.3510   12.8170   17.6730 H   0  0  0  0  0  0  0  0  0  0  0  0
   22.0970   11.9110   20.2760 H   0  0  0  0  0  0  0  0  0  0  0  0
   21.7340    9.3900   23.8880 H   0  0  0  0  0  0  0  0  0  0  0  0
   23.8940    9.0220   24.4470 H   0  0  0  0  0  0  0  0  0  0  0  0
   20.7480   11.6560   24.5380 H   0  0  0  0  0  0  0  0  0  0  0  0
   22.1660   11.8990   25.6200 H   0  0  0  0  0  0  0  0  0  0  0  0
   20.4070    9.5350   25.7590 H   0  0  0  0  0  0  0  0  0  0  0  0
   21.6690    9.9230   26.7300 H   0  0  0  0  0  0  0  0  0  0  0  0
   19.6510   10.3870   27.8480 H   0  0  0  0  0  0  0  0  0  0  0  0
   20.5500   11.8840   27.5350 H   0  0  0  0  0  0  0  0  0  0  0  0
   19.0850   13.6810   26.8890 H   0  0  0  0  0  0  0  0  0  0  0  0
   17.1670   14.5290   25.6160 H   0  0  0  0  0  0  0  0  0  0  0  0
   15.7600   13.0220   24.3100 H   0  0  0  0  0  0  0  0  0  0  0  0
   14.6600    9.8350   22.8840 H   0  0  0  0  0  0  0  0  0  0  0  0
   15.4300   11.3970   22.5880 H   0  0  0  0  0  0  0  0  0  0  0  0
   14.3070   11.1720   23.9840 H   0  0  0  0  0  0  0  0  0  0  0  0
   18.1100    9.6800   25.6070 H   0  0  0  0  0  0  0  0  0  0  0  0
  1  2  1  0  0  0  0
  1 43  1  0  0  0  0
  1 44  1  0  0  0  0
  1 45  1  0  0  0  0
  2  3  1  0  0  0  0
  2 46  1  0  0  0  0
  2 47  1  0  0  0  0
  3  4  1  0  0  0  0
  3 48  1  0  0  0  0
  3 49  1  0  0  0  0
  4  5  1  0  0  0  0
  4  8  1  0  0  0  0
  5  6  1  0  0  0  0
  5 50  1  0  0  0  0
  5 51  1  0  0  0  0
  6  7  1  0  0  0  0
  6 52  1  0  0  0  0
  6 53  1  0  0  0  0
  7 54  1  0  0  0  0
  7 55  1  0  0  0  0
  7 56  1  0  0  0  0
  8  9  2  0  0  0  0
  8 10  1  0  0  0  0
 10 11  1  0  0  0  0
 10 16  2  0  0  0  0
 11 12  2  0  0  0  0
 11 57  1  0  0  0  0
 12 13  1  0  0  0  0
 12 14  1  0  0  0  0
 13 58  1  0  0  0  0
 13 59  1  0  0  0  0
 13 60  1  0  0  0  0
 14 15  2  0  0  0  0
 14 61  1  0  0  0  0
 15 16  1  0  0  0  0
 15 17  1  0  0  0  0
 16 62  1  0  0  0  0
 17 18  2  0  0  0  0
 17 19  1  0  0  0  0
 19 20  1  0  0  0  0
 19 63  1  0  0  0  0
 20 21  1  0  0  0  0
 20 30  1  0  0  0  0
 20 64  1  0  0  0  0
 21 22  1  0  0  0  0
 21 65  1  0  0  0  0
 21 66  1  0  0  0  0
 22 23  2  0  0  0  0
 22 29  1  0  0  0  0
 23 24  1  0  0  0  0
 23 67  1  0  0  0  0
 24 25  1  0  0  0  0
 24 26  2  0  0  0  0
 26 27  1  0  0  0  0
 26 68  1  0  0  0  0
 27 28  1  0  0  0  0
 27 29  2  0  0  0  0
 29 69  1  0  0  0  0
 30 31  1  0  0  0  0
 30 32  1  0  0  0  0
 30 70  1  0  0  0  0
 31 71  1  0  0  0  0
 32 33  1  0  0  0  0
 32 72  1  0  0  0  0
 32 73  1  0  0  0  0
 33 34  1  0  0  0  0
 33 74  1  0  0  0  0
 33 75  1  0  0  0  0
 34 35  1  0  0  0  0
 34 76  1  0  0  0  0
 34 77  1  0  0  0  0
 35 36  1  0  0  0  0
 35 42  2  0  0  0  0
 36 37  2  0  0  0  0
 36 78  1  0  0  0  0
 37 38  1  0  0  0  0
 37 79  1  0  0  0  0
 38 39  2  0  0  0  0
 38 80  1  0  0  0  0
 39 40  1  0  0  0  0
 39 42  1  0  0  0  0
 40 41  1  0  0  0  0
 41 81  1  0  0  0  0
 41 82  1  0  0  0  0
 41 83  1  0  0  0  0
 42 84  1  0  0  0  0
M  CHG  1  33   1
M  END
>  <PARENT_CMPD_ID>
CHEMBL221597

>  <STANDARD_TYPE>
IC50

>  <RELATION>
=

>  <STANDARD_VALUE>
20

>  <STANDARD_UNITS>
nM

>  <COMPOUND_KEY>
1a

>  <PUBMED_ID>
19375914

>  <JOURNAL>
Bioorg. Med. Chem. Lett.

>  <YEAR>
2009

>  <VOLUME>
19

>  <FIRST_PAGE>
2654

>  <Company>
BMS

>  <idx>
488

>  <Model>
Valid

>  <target>
7.6989698

>  <des_pred_mlr>
7.5442801

>  <RF_Canvas>
6.9950337

>  <DNN_Canvas>
7.2660899

>  <pred_CoMFA>
6.8011999

>  <pred_COMSIA>
8.4615002

>  <pred_abm5>
7.3317394

>  <pred_ff8>
6.6224852

>  <pred_gau6>
7.3224607

>  <CID>
BACE_488

>  <active>
1

>  <des_class_bayes>
1

>  <maacs_class_bayes>
1

>  <radial_class_bayes>
0

>  <dend_class_bayes>
1

>  <molprint_class_bayes>
1

>  <RF_canvas>
1

>  <DNN_canvas>
1

$$$$
CHEMBL539466
  MOE2015           3D

 94 96  0  0  1  0  0  0  0  0999 V2000
   27.9710   16.4900   19.0520 C   0  0  0  0  0  0  0  0  0  0  0  0
   28.6920   15.8450   20.2080 C   0  0  0  0  0  0  0  0  0  0  0  0
   27.9800   14.5790   20.6630 C   0  0  0  0  0  0  0  0  0  0  0  0
   28.7260   13.9680   21.7560 N   0  0  0  0  0  0  0  0  0  0  0  0
   29.8310   13.0940   21.3960 C   0  0  0  0  0  0  0  0  0  0  0  0
   29.3960   11.6420   21.5190 C   0  0  0  0  0  0  0  0  0  0  0  0
   30.4920   10.7030   21.0820 C   0  0  0  0  0  0  0  0  0  0  0  0
   28.4940   14.1940   23.1090 C   0  0  0  0  0  0  0  0  0  0  0  0
   29.3530   14.0240   23.9690 O   0  0  0  0  0  0  0  0  0  0  0  0
   27.1490   14.6150   23.5350 C   0  0  0  0  0  0  0  0  0  0  0  0
   27.0010   15.7300   24.3460 C   0  0  0  0  0  0  0  0  0  0  0  0
   25.7430   16.0820   24.8420 C   0  0  0  0  0  0  0  0  0  0  0  0
   24.6380   15.2890   24.5130 C   0  0  0  0  0  0  0  0  0  0  0  0
   24.7970   14.1440   23.7370 C   0  0  0  0  0  0  0  0  0  0  0  0
   26.0530   13.8140   23.2330 C   0  0  0  0  0  0  0  0  0  0  0  0
   23.6180   13.2790   23.4890 C   0  0  0  0  0  0  0  0  0  0  0  0
   22.4790   13.7250   23.4390 O   0  0  0  0  0  0  0  0  0  0  0  0
   23.8850   11.9360   23.3420 N   0  0  0  0  0  0  0  0  0  0  0  0
   22.8450   10.9840   22.9580 C   0  0  3  0  0  0  0  0  0  0  0  0
   23.3770   10.0380   21.8680 C   0  0  0  0  0  0  0  0  0  0  0  0
   23.9170   10.7910   20.6770 C   0  0  0  0  0  0  0  0  0  0  0  0
   23.1270   11.7120   19.9870 C   0  0  0  0  0  0  0  0  0  0  0  0
   23.6660   12.4530   18.9470 C   0  0  0  0  0  0  0  0  0  0  0  0
   22.9030   13.3510   18.3240 F   0  0  0  0  0  0  0  0  0  0  0  0
   24.9760   12.2820   18.5520 C   0  0  0  0  0  0  0  0  0  0  0  0
   25.7480   11.3540   19.2180 C   0  0  0  0  0  0  0  0  0  0  0  0
   27.0180   11.1770   18.8530 F   0  0  0  0  0  0  0  0  0  0  0  0
   25.2370   10.6100   20.2700 C   0  0  0  0  0  0  0  0  0  0  0  0
   22.3390   10.2440   24.2020 C   0  0  3  0  0  0  0  0  0  0  0  0
   23.4380    9.7360   24.9580 O   0  0  0  0  0  0  0  0  0  0  0  0
   21.4950   11.1500   25.0950 C   0  0  0  0  0  0  0  0  0  0  0  0
   20.8630   10.2990   26.1580 N   0  3  0  0  0  0  0  0  0  0  0  0
   19.9400   11.0270   27.0780 C   0  0  0  0  0  0  0  0  0  0  0  0
   18.7720   11.6560   26.3710 C   0  0  0  0  0  0  0  0  0  0  0  0
   17.8590   10.8860   25.6540 C   0  0  0  0  0  0  0  0  0  0  0  0
   16.8170   11.4970   24.9630 C   0  0  0  0  0  0  0  0  0  0  0  0
   16.6690   12.8800   24.9840 C   0  0  0  0  0  0  0  0  0  0  0  0
   17.5620   13.6610   25.7010 C   0  0  0  0  0  0  0  0  0  0  0  0
   17.5410   15.0240   25.8090 O   0  0  0  0  0  0  0  0  0  0  0  0
   16.5620   15.7100   25.0400 C   0  0  0  0  0  0  0  0  0  0  0  0
   18.6020   13.0430   26.3920 C   0  0  0  0  0  0  0  0  0  0  0  0
   25.6220   17.2630   25.7780 C   0  0  3  0  0  0  0  0  0  0  0  0
   24.8420   18.3900   25.1230 C   0  0  0  0  0  0  0  0  0  0  0  0
   25.0200   16.8880   27.0530 N   0  0  0  0  0  0  0  0  0  0  0  0
   25.6790   16.0690   27.9480 C   0  0  0  0  0  0  0  0  0  0  0  0
   26.7550   15.5280   27.7150 O   0  0  0  0  0  0  0  0  0  0  0  0
   24.9230   15.8450   29.2280 C   0  0  0  0  0  0  0  0  0  0  0  0
   28.4930   17.3990   18.7350 H   0  0  0  0  0  0  0  0  0  0  0  0
   26.9490   16.7690   19.3290 H   0  0  0  0  0  0  0  0  0  0  0  0
   27.9190   15.8150   18.1920 H   0  0  0  0  0  0  0  0  0  0  0  0
   28.7580   16.5570   21.0400 H   0  0  0  0  0  0  0  0  0  0  0  0
   29.7220   15.6200   19.9070 H   0  0  0  0  0  0  0  0  0  0  0  0
   27.8930   13.8520   19.8470 H   0  0  0  0  0  0  0  0  0  0  0  0
   26.9670   14.8400   20.9760 H   0  0  0  0  0  0  0  0  0  0  0  0
   30.1610   13.3190   20.3750 H   0  0  0  0  0  0  0  0  0  0  0  0
   30.6810   13.2860   22.0610 H   0  0  0  0  0  0  0  0  0  0  0  0
   29.1160   11.4150   22.5550 H   0  0  0  0  0  0  0  0  0  0  0  0
   28.5030   11.4640   20.9100 H   0  0  0  0  0  0  0  0  0  0  0  0
   31.3900   10.8300   21.6950 H   0  0  0  0  0  0  0  0  0  0  0  0
   30.7650   10.8740   20.0350 H   0  0  0  0  0  0  0  0  0  0  0  0
   30.1630    9.6630   21.1780 H   0  0  0  0  0  0  0  0  0  0  0  0
   27.8830   16.3070   24.6230 H   0  0  0  0  0  0  0  0  0  0  0  0
   23.6550   15.5410   24.9060 H   0  0  0  0  0  0  0  0  0  0  0  0
   26.1990   12.9410   22.6030 H   0  0  0  0  0  0  0  0  0  0  0  0
   24.8290   11.5870   23.4650 H   0  0  0  0  0  0  0  0  0  0  0  0
   21.9980   11.5380   22.5350 H   0  0  0  0  0  0  0  0  0  0  0  0
   24.1630    9.3980   22.2880 H   0  0  0  0  0  0  0  0  0  0  0  0
   22.5780    9.3680   21.5260 H   0  0  0  0  0  0  0  0  0  0  0  0
   22.0900   11.8850   20.2580 H   0  0  0  0  0  0  0  0  0  0  0  0
   25.3870   12.8610   17.7340 H   0  0  0  0  0  0  0  0  0  0  0  0
   25.8910    9.9000   20.7710 H   0  0  0  0  0  0  0  0  0  0  0  0
   21.7350    9.3850   23.8850 H   0  0  0  0  0  0  0  0  0  0  0  0
   24.0750   10.4610   25.0940 H   0  0  0  0  0  0  0  0  0  0  0  0
   20.6940   11.6260   24.5230 H   0  0  0  0  0  0  0  0  0  0  0  0
   22.0970   11.8970   25.6220 H   0  0  0  0  0  0  0  0  0  0  0  0
   20.3510    9.5250   25.7180 H   0  0  0  0  0  0  0  0  0  0  0  0
   21.6230    9.8510   26.6920 H   0  0  0  0  0  0  0  0  0  0  0  0
   19.5850   10.2930   27.8090 H   0  0  0  0  0  0  0  0  0  0  0  0
   20.5470   11.7670   27.6120 H   0  0  0  0  0  0  0  0  0  0  0  0
   17.9340    9.8010   25.6250 H   0  0  0  0  0  0  0  0  0  0  0  0
   16.1070   10.8890   24.4060 H   0  0  0  0  0  0  0  0  0  0  0  0
   15.8400   13.3130   24.4340 H   0  0  0  0  0  0  0  0  0  0  0  0
   16.7030   16.7830   25.2000 H   0  0  0  0  0  0  0  0  0  0  0  0
   15.5510   15.4550   25.3720 H   0  0  0  0  0  0  0  0  0  0  0  0
   16.6890   15.5140   23.9700 H   0  0  0  0  0  0  0  0  0  0  0  0
   19.2970   13.6740   26.9450 H   0  0  0  0  0  0  0  0  0  0  0  0
   26.6250   17.6400   26.0170 H   0  0  0  0  0  0  0  0  0  0  0  0
   23.8050   18.1040   24.9130 H   0  0  0  0  0  0  0  0  0  0  0  0
   25.3030   18.6960   24.1780 H   0  0  0  0  0  0  0  0  0  0  0  0
   24.8070   19.2670   25.7800 H   0  0  0  0  0  0  0  0  0  0  0  0
   24.1030   17.2500   27.2870 H   0  0  0  0  0  0  0  0  0  0  0  0
   24.2220   15.0170   29.0910 H   0  0  0  0  0  0  0  0  0  0  0  0
   24.3690   16.7430   29.5150 H   0  0  0  0  0  0  0  0  0  0  0  0
   25.6260   15.6010   30.0280 H   0  0  0  0  0  0  0  0  0  0  0  0
  1  2  1  0  0  0  0
  1 48  1  0  0  0  0
  1 49  1  0  0  0  0
  1 50  1  0  0  0  0
  2  3  1  0  0  0  0
  2 51  1  0  0  0  0
  2 52  1  0  0  0  0
  3  4  1  0  0  0  0
  3 53  1  0  0  0  0
  3 54  1  0  0  0  0
  4  5  1  0  0  0  0
  4  8  1  0  0  0  0
  5  6  1  0  0  0  0
  5 55  1  0  0  0  0
  5 56  1  0  0  0  0
  6  7  1  0  0  0  0
  6 57  1  0  0  0  0
  6 58  1  0  0  0  0
  7 59  1  0  0  0  0
  7 60  1  0  0  0  0
  7 61  1  0  0  0  0
  8  9  2  0  0  0  0
  8 10  1  0  0  0  0
 10 11  1  0  0  0  0
 10 15  2  0  0  0  0
 11 12  2  0  0  0  0
 11 62  1  0  0  0  0
 12 13  1  0  0  0  0
 12 42  1  0  0  0  0
 13 14  2  0  0  0  0
 13 63  1  0  0  0  0
 14 15  1  0  0  0  0
 14 16  1  0  0  0  0
 15 64  1  0  0  0  0
 16 17  2  0  0  0  0
 16 18  1  0  0  0  0
 18 19  1  0  0  0  0
 18 65  1  0  0  0  0
 19 20  1  0  0  0  0
 19 29  1  0  0  0  0
 19 66  1  0  0  0  0
 20 21  1  0  0  0  0
 20 67  1  0  0  0  0
 20 68  1  0  0  0  0
 21 22  1  0  0  0  0
 21 28  2  0  0  0  0
 22 23  2  0  0  0  0
 22 69  1  0  0  0  0
 23 24  1  0  0  0  0
 23 25  1  0  0  0  0
 25 26  2  0  0  0  0
 25 70  1  0  0  0  0
 26 27  1  0  0  0  0
 26 28  1  0  0  0  0
 28 71  1  0  0  0  0
 29 30  1  0  0  0  0
 29 31  1  0  0  0  0
 29 72  1  0  0  0  0
 30 73  1  0  0  0  0
 31 32  1  0  0  0  0
 31 74  1  0  0  0  0
 31 75  1  0  0  0  0
 32 33  1  0  0  0  0
 32 76  1  0  0  0  0
 32 77  1  0  0  0  0
 33 34  1  0  0  0  0
 33 78  1  0  0  0  0
 33 79  1  0  0  0  0
 34 35  1  0  0  0  0
 34 41  2  0  0  0  0
 35 36  2  0  0  0  0
 35 80  1  0  0  0  0
 36 37  1  0  0  0  0
 36 81  1  0  0  0  0
 37 38  2  0  0  0  0
 37 82  1  0  0  0  0
 38 39  1  0  0  0  0
 38 41  1  0  0  0  0
 39 40  1  0  0  0  0
 40 83  1  0  0  0  0
 40 84  1  0  0  0  0
 40 85  1  0  0  0  0
 41 86  1  0  0  0  0
 42 43  1  0  0  0  0
 42 44  1  0  0  0  0
 42 87  1  0  0  0  0
 43 88  1  0  0  0  0
 43 89  1  0  0  0  0
 43 90  1  0  0  0  0
 44 45  1  0  0  0  0
 44 91  1  0  0  0  0
 45 46  2  0  0  0  0
 45 47  1  0  0  0  0
 47 92  1  0  0  0  0
 47 93  1  0  0  0  0
 47 94  1  0  0  0  0
M  CHG  1  32   1
M  END
>  <PARENT_CMPD_ID>
CHEMBL539466

>  <STANDARD_TYPE>
IC50

>  <RELATION>
=

>  <STANDARD_VALUE>
20

>  <STANDARD_UNITS>
nM

>  <COMPOUND_KEY>
1q

>  <PUBMED_ID>
19375914

>  <JOURNAL>
Bioorg. Med. Chem. Lett.

>  <YEAR>
2009

>  <VOLUME>
19

>  <FIRST_PAGE>
2654

>  <Company>
BMS

>  <idx>
489

>  <Model>
Valid

>  <target>
7.6989698

>  <des_pred_mlr>
7.6856499

>  <RF_Canvas>
7.5316844

>  <DNN_Canvas>
7.53018

>  <pred_CoMFA>
7.1444998

>  <pred_COMSIA>
8.7283001

>  <pred_abm5>
7.0234184

>  <pred_ff8>
6.4914007

>  <pred_gau6>
7.3667059

>  <CID>
BACE_489

>  <active>
1

>  <des_class_bayes>
1

>  <maacs_class_bayes>
1

>  <radial_class_bayes>
1

>  <dend_class_bayes>
1

>  <molprint_class_bayes>
1

>  <RF_canvas>
1

>  <DNN_canvas>
1

$$$$
CHEMBL540757
  MOE2015           3D

 70 73  0  0  1  0  0  0  0  0999 V2000
   29.5770   11.1330   21.4640 C   0  0  0  0  0  0  0  0  0  0  0  0
   29.2440   12.5200   20.9610 C   0  0  0  0  0  0  0  0  0  0  0  0
   29.0590   13.4670   22.0390 N   0  0  0  0  0  0  0  0  0  0  0  0
   30.0460   14.2700   22.5080 C   0  0  0  0  0  0  0  0  0  0  0  0
   29.5640   14.9740   23.5870 C   0  0  0  0  0  0  0  0  0  0  0  0
   30.4620   15.7440   24.4860 C   0  0  0  0  0  0  0  0  0  0  0  0
   29.8590   16.6920   25.4740 C   0  0  0  0  0  0  0  0  0  0  0  0
   28.6150   15.9970   26.5360 S   0  0  0  0  0  0  0  0  0  0  0  0
   28.4090   16.9250   27.6270 O   0  0  0  0  0  0  0  0  0  0  0  0
   28.8220   14.5940   26.8200 O   0  0  0  0  0  0  0  0  0  0  0  0
   27.2480   16.0870   25.5390 N   0  0  0  0  0  0  0  0  0  0  0  0
   26.6600   17.3930   25.2370 C   0  0  0  0  0  0  0  0  0  0  0  0
   27.1200   15.0710   24.5450 C   0  0  0  0  0  0  0  0  0  0  0  0
   25.8570   14.4880   24.4150 C   0  0  0  0  0  0  0  0  0  0  0  0
   25.6440   13.4700   23.5050 C   0  0  0  0  0  0  0  0  0  0  0  0
   26.6560   13.0710   22.6350 C   0  0  0  0  0  0  0  0  0  0  0  0
   27.9040   13.6850   22.7420 C   0  0  0  0  0  0  0  0  0  0  0  0
   28.1740   14.6670   23.6950 C   0  0  0  0  0  0  0  0  0  0  0  0
   24.3170   12.8190   23.4480 C   0  0  0  0  0  0  0  0  0  0  0  0
   23.2810   13.4600   23.5670 O   0  0  0  0  0  0  0  0  0  0  0  0
   24.3420   11.4620   23.2150 N   0  0  0  0  0  0  0  0  0  0  0  0
   23.1450   10.6950   22.8910 C   0  0  3  0  0  0  0  0  0  0  0  0
   23.4450    9.7410   21.7140 C   0  0  0  0  0  0  0  0  0  0  0  0
   24.2790   10.3760   20.6290 C   0  0  0  0  0  0  0  0  0  0  0  0
   25.5050    9.8150   20.2700 C   0  0  0  0  0  0  0  0  0  0  0  0
   26.3100   10.4270   19.3180 C   0  0  0  0  0  0  0  0  0  0  0  0
   25.9010   11.6060   18.7160 C   0  0  0  0  0  0  0  0  0  0  0  0
   24.6810   12.1680   19.0570 C   0  0  0  0  0  0  0  0  0  0  0  0
   23.8690   11.5520   20.0000 C   0  0  0  0  0  0  0  0  0  0  0  0
   22.5970    9.9640   24.1350 C   0  0  2  0  0  0  0  0  0  0  0  0
   21.4350    9.1860   23.8180 O   0  0  0  0  0  0  0  0  0  0  0  0
   22.1840   10.9730   25.2090 C   0  0  0  0  0  0  0  0  0  0  0  0
   21.2080   10.3060   26.1350 N   0  3  0  0  0  0  0  0  0  0  0  0
   20.2620   11.2450   26.8390 C   0  0  0  0  0  0  0  0  0  0  0  0
   19.1950   11.8290   25.9130 C   0  0  0  0  0  0  0  0  0  0  0  0
   18.5160   12.8130   26.5380 F   0  0  0  0  0  0  0  0  0  0  0  0
   18.2980   10.8670   25.6020 F   0  0  0  0  0  0  0  0  0  0  0  0
   29.7230   10.4480   20.6220 H   0  0  0  0  0  0  0  0  0  0  0  0
   28.7750   10.7320   22.0920 H   0  0  0  0  0  0  0  0  0  0  0  0
   30.4960   11.1380   22.0600 H   0  0  0  0  0  0  0  0  0  0  0  0
   28.3330   12.5130   20.3550 H   0  0  0  0  0  0  0  0  0  0  0  0
   30.0500   12.8930   20.3180 H   0  0  0  0  0  0  0  0  0  0  0  0
   31.0480   14.2230   22.0990 H   0  0  0  0  0  0  0  0  0  0  0  0
   31.1770   16.3070   23.8710 H   0  0  0  0  0  0  0  0  0  0  0  0
   31.0640   15.0100   25.0420 H   0  0  0  0  0  0  0  0  0  0  0  0
   29.4310   17.5710   24.9830 H   0  0  0  0  0  0  0  0  0  0  0  0
   30.6460   17.0650   26.1410 H   0  0  0  0  0  0  0  0  0  0  0  0
   25.5770   17.3030   25.1050 H   0  0  0  0  0  0  0  0  0  0  0  0
   27.0900   17.8130   24.3230 H   0  0  0  0  0  0  0  0  0  0  0  0
   26.8160   18.1050   26.0520 H   0  0  0  0  0  0  0  0  0  0  0  0
   25.0500   14.8040   25.0730 H   0  0  0  0  0  0  0  0  0  0  0  0
   26.4800   12.3130   21.8800 H   0  0  0  0  0  0  0  0  0  0  0  0
   25.2320   10.9730   23.2450 H   0  0  0  0  0  0  0  0  0  0  0  0
   22.3730   11.3940   22.5410 H   0  0  0  0  0  0  0  0  0  0  0  0
   23.9690    8.8570   22.1000 H   0  0  0  0  0  0  0  0  0  0  0  0
   22.5100    9.3760   21.2720 H   0  0  0  0  0  0  0  0  0  0  0  0
   25.8540    8.8960   20.7350 H   0  0  0  0  0  0  0  0  0  0  0  0
   27.2640    9.9820   19.0490 H   0  0  0  0  0  0  0  0  0  0  0  0
   26.5310   12.0850   17.9710 H   0  0  0  0  0  0  0  0  0  0  0  0
   24.3550   13.0860   18.5740 H   0  0  0  0  0  0  0  0  0  0  0  0
   22.9140   12.0090   20.2470 H   0  0  0  0  0  0  0  0  0  0  0  0
   23.3470    9.2800   24.5500 H   0  0  0  0  0  0  0  0  0  0  0  0
   21.7000    8.4450   23.2410 H   0  0  0  0  0  0  0  0  0  0  0  0
   21.6650   11.8210   24.7590 H   0  0  0  0  0  0  0  0  0  0  0  0
   23.0250   11.3330   25.8090 H   0  0  0  0  0  0  0  0  0  0  0  0
   21.7100    9.7140   26.8090 H   0  0  0  0  0  0  0  0  0  0  0  0
   20.6860    9.6460   25.5200 H   0  0  0  0  0  0  0  0  0  0  0  0
   19.7870   10.6520   27.6280 H   0  0  0  0  0  0  0  0  0  0  0  0
   20.8670   12.0280   27.3060 H   0  0  0  0  0  0  0  0  0  0  0  0
   19.5970   12.2390   24.9840 H   0  0  0  0  0  0  0  0  0  0  0  0
  1  2  1  0  0  0  0
  1 38  1  0  0  0  0
  1 39  1  0  0  0  0
  1 40  1  0  0  0  0
  2  3  1  0  0  0  0
  2 41  1  0  0  0  0
  2 42  1  0  0  0  0
  3  4  1  0  0  0  0
  3 17  1  0  0  0  0
  4  5  2  0  0  0  0
  4 43  1  0  0  0  0
  5  6  1  0  0  0  0
  5 18  1  0  0  0  0
  6  7  1  0  0  0  0
  6 44  1  0  0  0  0
  6 45  1  0  0  0  0
  7  8  1  0  0  0  0
  7 46  1  0  0  0  0
  7 47  1  0  0  0  0
  8  9  2  0  0  0  0
  8 10  2  0  0  0  0
  8 11  1  0  0  0  0
 11 12  1  0  0  0  0
 11 13  1  0  0  0  0
 12 48  1  0  0  0  0
 12 49  1  0  0  0  0
 12 50  1  0  0  0  0
 13 14  1  0  0  0  0
 13 18  2  0  0  0  0
 14 15  2  0  0  0  0
 14 51  1  0  0  0  0
 15 16  1  0  0  0  0
 15 19  1  0  0  0  0
 16 17  2  0  0  0  0
 16 52  1  0  0  0  0
 17 18  1  0  0  0  0
 19 20  2  0  0  0  0
 19 21  1  0  0  0  0
 21 22  1  0  0  0  0
 21 53  1  0  0  0  0
 22 23  1  0  0  0  0
 22 30  1  0  0  0  0
 22 54  1  0  0  0  0
 23 24  1  0  0  0  0
 23 55  1  0  0  0  0
 23 56  1  0  0  0  0
 24 25  1  0  0  0  0
 24 29  2  0  0  0  0
 25 26  2  0  0  0  0
 25 57  1  0  0  0  0
 26 27  1  0  0  0  0
 26 58  1  0  0  0  0
 27 28  2  0  0  0  0
 27 59  1  0  0  0  0
 28 29  1  0  0  0  0
 28 60  1  0  0  0  0
 29 61  1  0  0  0  0
 30 31  1  0  0  0  0
 30 32  1  0  0  0  0
 30 62  1  0  0  0  0
 31 63  1  0  0  0  0
 32 33  1  0  0  0  0
 32 64  1  0  0  0  0
 32 65  1  0  0  0  0
 33 34  1  0  0  0  0
 33 66  1  0  0  0  0
 33 67  1  0  0  0  0
 34 35  1  0  0  0  0
 34 68  1  0  0  0  0
 34 69  1  0  0  0  0
 35 36  1  0  0  0  0
 35 37  1  0  0  0  0
 35 70  1  0  0  0  0
M  CHG  1  33   1
M  END
>  <PARENT_CMPD_ID>
CHEMBL540757

>  <STANDARD_TYPE>
IC50

>  <RELATION>
=

>  <STANDARD_VALUE>
20

>  <STANDARD_UNITS>
nM

>  <COMPOUND_KEY>
25

>  <PUBMED_ID>
19406640

>  <JOURNAL>
Bioorg. Med. Chem. Lett.

>  <YEAR>
2009

>  <VOLUME>
19

>  <FIRST_PAGE>
3674

>  <Company>
GSK

>  <idx>
490

>  <Model>
Valid

>  <target>
7.6989698

>  <des_pred_mlr>
6.80268

>  <RF_Canvas>
7.4981818

>  <DNN_Canvas>
7.2813859

>  <pred_CoMFA>
6.3764

>  <pred_COMSIA>
5.9891

>  <pred_abm5>
6.5079432

>  <pred_ff8>
7.6681757

>  <pred_gau6>
5.8509655

>  <CID>
BACE_490

>  <active>
1

>  <des_class_bayes>
1

>  <maacs_class_bayes>
1

>  <radial_class_bayes>
1

>  <dend_class_bayes>
1

>  <molprint_class_bayes>
1

>  <RF_canvas>
1

>  <DNN_canvas>
1

$$$$
CHEMBL523193
  MOE2015           3D

 71 75  0  0  1  0  0  0  0  0999 V2000
   29.4790   12.4190   19.8900 C   0  0  0  0  0  0  0  0  0  0  0  0
   29.5550   12.0930   21.3610 C   0  0  0  0  0  0  0  0  0  0  0  0
   29.2320   13.2700   22.2100 C   0  0  0  0  0  0  0  0  0  0  0  0
   30.1050   14.2540   22.6160 C   0  0  0  0  0  0  0  0  0  0  0  0
   29.4370   15.1020   23.4430 N   0  0  0  0  0  0  0  0  0  0  0  0
   29.9850   16.3000   24.0390 C   0  0  0  0  0  0  0  0  0  0  0  0
   30.1460   16.2660   25.5420 C   0  0  0  0  0  0  0  0  0  0  0  0
   28.6600   15.9040   26.4680 S   0  0  0  0  0  0  0  0  0  0  0  0
   28.5450   16.8710   27.5390 O   0  0  0  0  0  0  0  0  0  0  0  0
   28.6650   14.4910   26.7790 O   0  0  0  0  0  0  0  0  0  0  0  0
   27.4160   16.2340   25.3480 N   0  0  0  0  0  0  0  0  0  0  0  0
   26.3170   17.0870   25.8160 C   0  0  0  0  0  0  0  0  0  0  0  0
   27.1300   15.1740   24.4300 C   0  0  0  0  0  0  0  0  0  0  0  0
   25.8880   14.5350   24.3830 C   0  0  0  0  0  0  0  0  0  0  0  0
   25.6790   13.4470   23.5470 C   0  0  0  0  0  0  0  0  0  0  0  0
   26.7130   12.9640   22.7420 C   0  0  0  0  0  0  0  0  0  0  0  0
   27.9760   13.5660   22.8000 C   0  0  0  0  0  0  0  0  0  0  0  0
   28.1460   14.6730   23.6140 C   0  0  0  0  0  0  0  0  0  0  0  0
   24.3380   12.8130   23.4980 C   0  0  0  0  0  0  0  0  0  0  0  0
   23.3110   13.4730   23.5880 O   0  0  0  0  0  0  0  0  0  0  0  0
   24.3340   11.4490   23.2930 N   0  0  0  0  0  0  0  0  0  0  0  0
   23.1170   10.7040   22.9890 C   0  0  3  0  0  0  0  0  0  0  0  0
   23.3720    9.7810   21.7710 C   0  0  0  0  0  0  0  0  0  0  0  0
   24.2170   10.4060   20.6890 C   0  0  0  0  0  0  0  0  0  0  0  0
   23.8240   11.5850   20.0600 C   0  0  0  0  0  0  0  0  0  0  0  0
   24.6400   12.1840   19.1080 C   0  0  0  0  0  0  0  0  0  0  0  0
   25.8500   11.6030   18.7640 C   0  0  0  0  0  0  0  0  0  0  0  0
   26.2460   10.4220   19.3720 C   0  0  0  0  0  0  0  0  0  0  0  0
   25.4340    9.8260   20.3280 C   0  0  0  0  0  0  0  0  0  0  0  0
   22.5980    9.9230   24.2190 C   0  0  3  0  0  0  0  0  0  0  0  0
   21.4340    9.1490   23.8840 O   0  0  0  0  0  0  0  0  0  0  0  0
   22.2760   10.8030   25.4370 C   0  0  0  0  0  0  0  0  0  0  0  0
   20.9000   10.4770   25.9350 N   0  3  0  0  0  0  0  0  0  0  0  0
   19.8720   11.4430   25.4860 C   0  0  0  0  0  0  0  0  0  0  0  0
   19.2130   12.3220   26.5040 C   0  0  0  0  0  0  0  0  0  0  0  0
   18.4610   11.1710   25.9120 C   0  0  0  0  0  0  0  0  0  0  0  0
   29.6690   11.5250   19.2890 H   0  0  0  0  0  0  0  0  0  0  0  0
   30.2240   13.1740   19.6120 H   0  0  0  0  0  0  0  0  0  0  0  0
   28.4950   12.8130   19.6170 H   0  0  0  0  0  0  0  0  0  0  0  0
   30.5630   11.7320   21.6020 H   0  0  0  0  0  0  0  0  0  0  0  0
   28.8720   11.2650   21.5870 H   0  0  0  0  0  0  0  0  0  0  0  0
   31.1530   14.4000   22.3840 H   0  0  0  0  0  0  0  0  0  0  0  0
   30.9630   16.4840   23.5770 H   0  0  0  0  0  0  0  0  0  0  0  0
   29.3410   17.1320   23.7300 H   0  0  0  0  0  0  0  0  0  0  0  0
   30.5050   17.2410   25.8880 H   0  0  0  0  0  0  0  0  0  0  0  0
   30.8840   15.5110   25.8340 H   0  0  0  0  0  0  0  0  0  0  0  0
   25.6290   17.3210   24.9970 H   0  0  0  0  0  0  0  0  0  0  0  0
   26.7060   18.0460   26.1730 H   0  0  0  0  0  0  0  0  0  0  0  0
   25.7570   16.6020   26.6220 H   0  0  0  0  0  0  0  0  0  0  0  0
   25.0710   14.8740   25.0150 H   0  0  0  0  0  0  0  0  0  0  0  0
   26.5600   12.1320   22.0630 H   0  0  0  0  0  0  0  0  0  0  0  0
   25.2100   10.9390   23.3330 H   0  0  0  0  0  0  0  0  0  0  0  0
   22.3380   11.4180   22.6910 H   0  0  0  0  0  0  0  0  0  0  0  0
   23.8640    8.8640   22.1200 H   0  0  0  0  0  0  0  0  0  0  0  0
   22.4170    9.4640   21.3320 H   0  0  0  0  0  0  0  0  0  0  0  0
   22.8770   12.0570   20.3120 H   0  0  0  0  0  0  0  0  0  0  0  0
   24.3240   13.1050   18.6250 H   0  0  0  0  0  0  0  0  0  0  0  0
   26.4840   12.0690   18.0150 H   0  0  0  0  0  0  0  0  0  0  0  0
   27.1940    9.9650   19.1030 H   0  0  0  0  0  0  0  0  0  0  0  0
   25.7680    8.9030   20.7970 H   0  0  0  0  0  0  0  0  0  0  0  0
   23.3690    9.2050   24.5290 H   0  0  0  0  0  0  0  0  0  0  0  0
   21.7010    8.4370   23.2700 H   0  0  0  0  0  0  0  0  0  0  0  0
   22.3240   11.8780   25.2530 H   0  0  0  0  0  0  0  0  0  0  0  0
   22.9630   10.5740   26.2590 H   0  0  0  0  0  0  0  0  0  0  0  0
   20.8760   10.3300   26.9490 H   0  0  0  0  0  0  0  0  0  0  0  0
   20.6790    9.5760   25.4600 H   0  0  0  0  0  0  0  0  0  0  0  0
   19.9940   11.8420   24.4810 H   0  0  0  0  0  0  0  0  0  0  0  0
   19.5190   12.2540   27.5410 H   0  0  0  0  0  0  0  0  0  0  0  0
   18.9330   13.3240   26.1980 H   0  0  0  0  0  0  0  0  0  0  0  0
   17.6670   11.3950   25.2080 H   0  0  0  0  0  0  0  0  0  0  0  0
   18.2510   10.3210   26.5510 H   0  0  0  0  0  0  0  0  0  0  0  0
  1  2  1  0  0  0  0
  1 37  1  0  0  0  0
  1 38  1  0  0  0  0
  1 39  1  0  0  0  0
  2  3  1  0  0  0  0
  2 40  1  0  0  0  0
  2 41  1  0  0  0  0
  3  4  2  0  0  0  0
  3 17  1  0  0  0  0
  4  5  1  0  0  0  0
  4 42  1  0  0  0  0
  5  6  1  0  0  0  0
  5 18  1  0  0  0  0
  6  7  1  0  0  0  0
  6 43  1  0  0  0  0
  6 44  1  0  0  0  0
  7  8  1  0  0  0  0
  7 45  1  0  0  0  0
  7 46  1  0  0  0  0
  8  9  2  0  0  0  0
  8 10  2  0  0  0  0
  8 11  1  0  0  0  0
 11 12  1  0  0  0  0
 11 13  1  0  0  0  0
 12 47  1  0  0  0  0
 12 48  1  0  0  0  0
 12 49  1  0  0  0  0
 13 14  1  0  0  0  0
 13 18  2  0  0  0  0
 14 15  2  0  0  0  0
 14 50  1  0  0  0  0
 15 16  1  0  0  0  0
 15 19  1  0  0  0  0
 16 17  2  0  0  0  0
 16 51  1  0  0  0  0
 17 18  1  0  0  0  0
 19 20  2  0  0  0  0
 19 21  1  0  0  0  0
 21 22  1  0  0  0  0
 21 52  1  0  0  0  0
 22 23  1  0  0  0  0
 22 30  1  0  0  0  0
 22 53  1  0  0  0  0
 23 24  1  0  0  0  0
 23 54  1  0  0  0  0
 23 55  1  0  0  0  0
 24 25  1  0  0  0  0
 24 29  2  0  0  0  0
 25 26  2  0  0  0  0
 25 56  1  0  0  0  0
 26 27  1  0  0  0  0
 26 57  1  0  0  0  0
 27 28  2  0  0  0  0
 27 58  1  0  0  0  0
 28 29  1  0  0  0  0
 28 59  1  0  0  0  0
 29 60  1  0  0  0  0
 30 31  1  0  0  0  0
 30 32  1  0  0  0  0
 30 61  1  0  0  0  0
 31 62  1  0  0  0  0
 32 33  1  0  0  0  0
 32 63  1  0  0  0  0
 32 64  1  0  0  0  0
 33 34  1  0  0  0  0
 33 65  1  0  0  0  0
 33 66  1  0  0  0  0
 34 35  1  0  0  0  0
 34 36  1  0  0  0  0
 34 67  1  0  0  0  0
 35 36  1  0  0  0  0
 35 68  1  0  0  0  0
 35 69  1  0  0  0  0
 36 70  1  0  0  0  0
 36 71  1  0  0  0  0
M  CHG  1  33   1
M  END
>  <PARENT_CMPD_ID>
CHEMBL523193

>  <STANDARD_TYPE>
IC50

>  <RELATION>
=

>  <STANDARD_VALUE>
20

>  <STANDARD_UNITS>
nM

>  <COMPOUND_KEY>
18

>  <PUBMED_ID>
19477642

>  <JOURNAL>
Bioorg. Med. Chem. Lett.

>  <YEAR>
2009

>  <VOLUME>
19

>  <FIRST_PAGE>
3669

>  <Company>
GSK

>  <idx>
491

>  <Model>
Valid

>  <target>
7.6989698

>  <des_pred_mlr>
6.78898

>  <RF_Canvas>
7.6146975

>  <DNN_Canvas>
7.2849998

>  <pred_CoMFA>
6.1226001

>  <pred_COMSIA>
5.9843001

>  <pred_abm5>
6.2900729

>  <pred_ff8>
7.3709116

>  <pred_gau6>
5.8946476

>  <CID>
BACE_491

>  <active>
1

>  <des_class_bayes>
0

>  <maacs_class_bayes>
1

>  <radial_class_bayes>
1

>  <dend_class_bayes>
1

>  <molprint_class_bayes>
1

>  <RF_canvas>
1

>  <DNN_canvas>
1

$$$$
CHEMBL533064
  MOE2015           3D

 74 78  0  0  1  0  0  0  0  0999 V2000
   25.6610   17.6120   26.1900 C   0  0  0  0  0  0  0  0  0  0  0  0
   26.8330   17.4010   25.2560 C   0  0  0  0  0  0  0  0  0  0  0  0
   27.3960   16.0700   25.4670 N   0  0  0  0  0  0  0  0  0  0  0  0
   27.1590   15.0640   24.4980 C   0  0  0  0  0  0  0  0  0  0  0  0
   25.9040   14.4700   24.4120 C   0  0  0  0  0  0  0  0  0  0  0  0
   25.6820   13.4380   23.5170 C   0  0  0  0  0  0  0  0  0  0  0  0
   26.7020   13.0050   22.6620 C   0  0  0  0  0  0  0  0  0  0  0  0
   27.9650   13.6120   22.7200 C   0  0  0  0  0  0  0  0  0  0  0  0
   29.1910   13.4080   22.0350 C   0  0  0  0  0  0  0  0  0  0  0  0
   29.4650   12.3990   20.9790 C   0  0  0  0  0  0  0  0  0  0  0  0
   29.6480   11.0040   21.5370 C   0  0  0  0  0  0  0  0  0  0  0  0
   30.0830   14.3320   22.5310 C   0  0  0  0  0  0  0  0  0  0  0  0
   29.4310   15.1130   23.4340 N   0  0  0  0  0  0  0  0  0  0  0  0
   29.9750   16.2940   24.0650 C   0  0  0  0  0  0  0  0  0  0  0  0
   30.1520   16.2300   25.5620 C   0  0  0  0  0  0  0  0  0  0  0  0
   28.6910   15.8410   26.5150 S   0  0  0  0  0  0  0  0  0  0  0  0
   28.7390   14.4320   26.8410 O   0  0  0  0  0  0  0  0  0  0  0  0
   28.5540   16.8190   27.5730 O   0  0  0  0  0  0  0  0  0  0  0  0
   28.1580   14.6480   23.6200 C   0  0  0  0  0  0  0  0  0  0  0  0
   24.3420   12.8090   23.4630 C   0  0  0  0  0  0  0  0  0  0  0  0
   23.3140   13.4620   23.5780 O   0  0  0  0  0  0  0  0  0  0  0  0
   24.3430   11.4520   23.2300 N   0  0  0  0  0  0  0  0  0  0  0  0
   23.1300   10.7110   22.9020 C   0  0  3  0  0  0  0  0  0  0  0  0
   23.4180    9.7560   21.7210 C   0  0  0  0  0  0  0  0  0  0  0  0
   24.2620   10.3830   20.6390 C   0  0  0  0  0  0  0  0  0  0  0  0
   25.4880    9.8150   20.2900 C   0  0  0  0  0  0  0  0  0  0  0  0
   26.3050   10.4240   19.3460 C   0  0  0  0  0  0  0  0  0  0  0  0
   25.9070   11.6060   18.7410 C   0  0  0  0  0  0  0  0  0  0  0  0
   24.6860   12.1730   19.0700 C   0  0  0  0  0  0  0  0  0  0  0  0
   23.8630   11.5600   20.0060 C   0  0  0  0  0  0  0  0  0  0  0  0
   22.5700    9.9840   24.1430 C   0  0  3  0  0  0  0  0  0  0  0  0
   21.4190    9.1880   23.8170 O   0  0  0  0  0  0  0  0  0  0  0  0
   22.1150   10.9980   25.2010 C   0  0  0  0  0  0  0  0  0  0  0  0
   21.1310   10.3060   26.0910 N   0  3  0  0  0  0  0  0  0  0  0  0
   20.1700   11.1890   26.7810 C   0  0  0  0  0  0  0  0  0  0  0  0
   18.7160   10.8280   26.6520 C   0  0  0  0  0  0  0  0  0  0  0  0
   19.2280   12.0490   25.9730 C   0  0  0  0  0  0  0  0  0  0  0  0
   25.2620   18.6240   26.0690 H   0  0  0  0  0  0  0  0  0  0  0  0
   25.9500   17.4880   27.2380 H   0  0  0  0  0  0  0  0  0  0  0  0
   24.8490   16.9090   25.9850 H   0  0  0  0  0  0  0  0  0  0  0  0
   27.5940   18.1700   25.4330 H   0  0  0  0  0  0  0  0  0  0  0  0
   26.5100   17.5320   24.2160 H   0  0  0  0  0  0  0  0  0  0  0  0
   25.1080   14.7870   25.0800 H   0  0  0  0  0  0  0  0  0  0  0  0
   26.5290   12.2220   21.9320 H   0  0  0  0  0  0  0  0  0  0  0  0
   28.6450   12.3990   20.2520 H   0  0  0  0  0  0  0  0  0  0  0  0
   30.3670   12.6810   20.4220 H   0  0  0  0  0  0  0  0  0  0  0  0
   28.7490   10.6560   22.0570 H   0  0  0  0  0  0  0  0  0  0  0  0
   30.4800   10.9670   22.2490 H   0  0  0  0  0  0  0  0  0  0  0  0
   29.8620   10.2970   20.7290 H   0  0  0  0  0  0  0  0  0  0  0  0
   31.1180   14.5150   22.2710 H   0  0  0  0  0  0  0  0  0  0  0  0
   30.9470   16.5000   23.6000 H   0  0  0  0  0  0  0  0  0  0  0  0
   29.3230   17.1290   23.7820 H   0  0  0  0  0  0  0  0  0  0  0  0
   30.5130   17.1990   25.9230 H   0  0  0  0  0  0  0  0  0  0  0  0
   30.9010   15.4740   25.8260 H   0  0  0  0  0  0  0  0  0  0  0  0
   25.2220   10.9450   23.2620 H   0  0  0  0  0  0  0  0  0  0  0  0
   22.3720   11.4240   22.5520 H   0  0  0  0  0  0  0  0  0  0  0  0
   23.9280    8.8630   22.1040 H   0  0  0  0  0  0  0  0  0  0  0  0
   22.4770    9.4070   21.2770 H   0  0  0  0  0  0  0  0  0  0  0  0
   25.8270    8.8950   20.7600 H   0  0  0  0  0  0  0  0  0  0  0  0
   27.2610    9.9770   19.0870 H   0  0  0  0  0  0  0  0  0  0  0  0
   26.5480   12.0830   18.0040 H   0  0  0  0  0  0  0  0  0  0  0  0
   24.3670   13.0930   18.5870 H   0  0  0  0  0  0  0  0  0  0  0  0
   22.9080   12.0220   20.2450 H   0  0  0  0  0  0  0  0  0  0  0  0
   23.3200    9.3140   24.5790 H   0  0  0  0  0  0  0  0  0  0  0  0
   21.7050    8.4560   23.2370 H   0  0  0  0  0  0  0  0  0  0  0  0
   21.5870   11.8330   24.7320 H   0  0  0  0  0  0  0  0  0  0  0  0
   22.9330   11.3750   25.8210 H   0  0  0  0  0  0  0  0  0  0  0  0
   21.6080    9.6930   26.7620 H   0  0  0  0  0  0  0  0  0  0  0  0
   20.6370    9.6710   25.4330 H   0  0  0  0  0  0  0  0  0  0  0  0
   20.5070   11.6030   27.7290 H   0  0  0  0  0  0  0  0  0  0  0  0
   18.4180    9.9930   26.0280 H   0  0  0  0  0  0  0  0  0  0  0  0
   18.0830   10.9620   27.5240 H   0  0  0  0  0  0  0  0  0  0  0  0
   18.9510   13.0140   26.3830 H   0  0  0  0  0  0  0  0  0  0  0  0
   19.2780   12.0350   24.8910 H   0  0  0  0  0  0  0  0  0  0  0  0
  1  2  1  0  0  0  0
  1 38  1  0  0  0  0
  1 39  1  0  0  0  0
  1 40  1  0  0  0  0
  2  3  1  0  0  0  0
  2 41  1  0  0  0  0
  2 42  1  0  0  0  0
  3  4  1  0  0  0  0
  3 16  1  0  0  0  0
  4  5  1  0  0  0  0
  4 19  2  0  0  0  0
  5  6  2  0  0  0  0
  5 43  1  0  0  0  0
  6  7  1  0  0  0  0
  6 20  1  0  0  0  0
  7  8  2  0  0  0  0
  7 44  1  0  0  0  0
  8  9  1  0  0  0  0
  8 19  1  0  0  0  0
  9 10  1  0  0  0  0
  9 12  2  0  0  0  0
 10 11  1  0  0  0  0
 10 45  1  0  0  0  0
 10 46  1  0  0  0  0
 11 47  1  0  0  0  0
 11 48  1  0  0  0  0
 11 49  1  0  0  0  0
 12 13  1  0  0  0  0
 12 50  1  0  0  0  0
 13 14  1  0  0  0  0
 13 19  1  0  0  0  0
 14 15  1  0  0  0  0
 14 51  1  0  0  0  0
 14 52  1  0  0  0  0
 15 16  1  0  0  0  0
 15 53  1  0  0  0  0
 15 54  1  0  0  0  0
 16 17  2  0  0  0  0
 16 18  2  0  0  0  0
 20 21  2  0  0  0  0
 20 22  1  0  0  0  0
 22 23  1  0  0  0  0
 22 55  1  0  0  0  0
 23 24  1  0  0  0  0
 23 31  1  0  0  0  0
 23 56  1  0  0  0  0
 24 25  1  0  0  0  0
 24 57  1  0  0  0  0
 24 58  1  0  0  0  0
 25 26  1  0  0  0  0
 25 30  2  0  0  0  0
 26 27  2  0  0  0  0
 26 59  1  0  0  0  0
 27 28  1  0  0  0  0
 27 60  1  0  0  0  0
 28 29  2  0  0  0  0
 28 61  1  0  0  0  0
 29 30  1  0  0  0  0
 29 62  1  0  0  0  0
 30 63  1  0  0  0  0
 31 32  1  0  0  0  0
 31 33  1  0  0  0  0
 31 64  1  0  0  0  0
 32 65  1  0  0  0  0
 33 34  1  0  0  0  0
 33 66  1  0  0  0  0
 33 67  1  0  0  0  0
 34 35  1  0  0  0  0
 34 68  1  0  0  0  0
 34 69  1  0  0  0  0
 35 36  1  0  0  0  0
 35 37  1  0  0  0  0
 35 70  1  0  0  0  0
 36 37  1  0  0  0  0
 36 71  1  0  0  0  0
 36 72  1  0  0  0  0
 37 73  1  0  0  0  0
 37 74  1  0  0  0  0
M  CHG  1  34   1
M  END
>  <PARENT_CMPD_ID>
CHEMBL533064

>  <STANDARD_TYPE>
IC50

>  <RELATION>
=

>  <STANDARD_VALUE>
20

>  <STANDARD_UNITS>
nM

>  <COMPOUND_KEY>
39

>  <PUBMED_ID>
19477642

>  <JOURNAL>
Bioorg. Med. Chem. Lett.

>  <YEAR>
2009

>  <VOLUME>
19

>  <FIRST_PAGE>
3669

>  <Company>
GSK

>  <idx>
492

>  <Model>
Valid

>  <target>
7.6989698

>  <des_pred_mlr>
6.9004898

>  <RF_Canvas>
7.7204652

>  <DNN_Canvas>
7.4453721

>  <pred_CoMFA>
6.4622002

>  <pred_COMSIA>
6.6002998

>  <pred_abm5>
6.748198

>  <pred_ff8>
7.6333375

>  <pred_gau6>
6.3222742

>  <CID>
BACE_492

>  <active>
1

>  <des_class_bayes>
0

>  <maacs_class_bayes>
1

>  <radial_class_bayes>
1

>  <dend_class_bayes>
1

>  <molprint_class_bayes>
1

>  <RF_canvas>
1

>  <DNN_canvas>
1

$$$$
CHEMBL576258
  MOE2015           3D

 54 58  0  0  1  0  0  0  0  0999 V2000
   22.8670    9.0950   24.7480 N   0  0  0  0  0  0  0  0  0  0  0  0
   22.5980    9.9710   23.7740 C   0  0  0  0  0  0  0  0  0  0  0  0
   22.4600    9.6360   22.4620 N   0  3  0  0  0  0  0  0  0  0  0  0
   22.1100   10.8350   21.6140 C   0  0  2  0  0  0  0  0  0  0  0  0
   22.1680   11.9220   22.7270 C   0  0  0  0  0  0  0  0  0  0  0  0
   22.0120   13.1830   22.5680 N   0  0  0  0  0  0  0  0  0  0  0  0
   22.2000   14.0190   23.7580 C   0  0  0  0  0  0  0  0  0  0  0  0
   21.7720   13.3240   25.0450 C   0  0  0  0  0  0  0  0  0  0  0  0
   22.5340   12.0280   25.2000 C   0  0  0  0  0  0  0  0  0  0  0  0
   22.4550   11.2870   23.9620 N   0  0  0  0  0  0  0  0  0  0  0  0
   20.7070   10.6250   21.0500 C   0  0  0  0  0  0  0  0  0  0  0  0
   19.7970   11.6820   20.9060 C   0  0  0  0  0  0  0  0  0  0  0  0
   18.5450   11.4910   20.3280 C   0  0  0  0  0  0  0  0  0  0  0  0
   18.1780   10.2330   19.8810 C   0  0  0  0  0  0  0  0  0  0  0  0
   16.9950   10.0440   19.2330 O   0  0  0  0  0  0  0  0  0  0  0  0
   15.9330    9.8020   20.1440 C   0  0  0  0  0  0  0  0  0  0  0  0
   16.2460    8.8300   21.0210 F   0  0  0  0  0  0  0  0  0  0  0  0
   15.6210   10.9230   20.8190 F   0  0  0  0  0  0  0  0  0  0  0  0
   14.8470    9.4070   19.4530 F   0  0  0  0  0  0  0  0  0  0  0  0
   19.0700    9.1780   19.9780 C   0  0  0  0  0  0  0  0  0  0  0  0
   20.3190    9.3720   20.5590 C   0  0  0  0  0  0  0  0  0  0  0  0
   23.2160   11.0650   20.5890 C   0  0  0  0  0  0  0  0  0  0  0  0
   22.9530   11.3570   19.2490 C   0  0  0  0  0  0  0  0  0  0  0  0
   23.9840   11.6070   18.3490 C   0  0  0  0  0  0  0  0  0  0  0  0
   25.3040   11.5850   18.7650 C   0  0  0  0  0  0  0  0  0  0  0  0
   25.6130   11.3140   20.0960 C   0  0  0  0  0  0  0  0  0  0  0  0
   24.5600   11.0560   20.9870 C   0  0  0  0  0  0  0  0  0  0  0  0
   26.9950   11.3200   20.5630 C   0  0  0  0  0  0  0  0  0  0  0  0
   27.8530   12.3800   20.2770 C   0  0  0  0  0  0  0  0  0  0  0  0
   29.1640   12.3680   20.7400 C   0  0  0  0  0  0  0  0  0  0  0  0
   29.5900   11.2850   21.4840 C   0  0  0  0  0  0  0  0  0  0  0  0
   28.8050   10.2380   21.7880 N   0  0  0  0  0  0  0  0  0  0  0  0
   27.5380   10.2880   21.3240 C   0  0  0  0  0  0  0  0  0  0  0  0
   26.7570    9.2430   21.6360 F   0  0  0  0  0  0  0  0  0  0  0  0
   22.9720    8.1050   24.5570 H   0  0  0  0  0  0  0  0  0  0  0  0
   22.9830    9.3960   25.7100 H   0  0  0  0  0  0  0  0  0  0  0  0
   22.6340    8.7030   22.1140 H   0  0  0  0  0  0  0  0  0  0  0  0
   23.2500   14.3290   23.8170 H   0  0  0  0  0  0  0  0  0  0  0  0
   21.6050   14.9300   23.6330 H   0  0  0  0  0  0  0  0  0  0  0  0
   20.6960   13.1130   24.9990 H   0  0  0  0  0  0  0  0  0  0  0  0
   21.9430   13.9750   25.9090 H   0  0  0  0  0  0  0  0  0  0  0  0
   22.1040   11.4410   26.0170 H   0  0  0  0  0  0  0  0  0  0  0  0
   23.5890   12.2230   25.4190 H   0  0  0  0  0  0  0  0  0  0  0  0
   20.0500   12.6970   21.2080 H   0  0  0  0  0  0  0  0  0  0  0  0
   17.8690   12.3350   20.2110 H   0  0  0  0  0  0  0  0  0  0  0  0
   18.8010    8.2000   19.5850 H   0  0  0  0  0  0  0  0  0  0  0  0
   20.9980    8.5230   20.5860 H   0  0  0  0  0  0  0  0  0  0  0  0
   21.9360   11.4040   18.8660 H   0  0  0  0  0  0  0  0  0  0  0  0
   23.7500   11.8270   17.3090 H   0  0  0  0  0  0  0  0  0  0  0  0
   26.0880   11.7800   18.0360 H   0  0  0  0  0  0  0  0  0  0  0  0
   24.8090   10.8630   22.0300 H   0  0  0  0  0  0  0  0  0  0  0  0
   27.5100   13.2360   19.6990 H   0  0  0  0  0  0  0  0  0  0  0  0
   29.8400   13.1890   20.5220 H   0  0  0  0  0  0  0  0  0  0  0  0
   30.6080   11.2310   21.8620 H   0  0  0  0  0  0  0  0  0  0  0  0
  1  2  1  0  0  0  0
  1 35  1  0  0  0  0
  1 36  1  0  0  0  0
  2  3  2  0  0  0  0
  2 10  1  0  0  0  0
  3  4  1  0  0  0  0
  3 37  1  0  0  0  0
  4  5  1  0  0  0  0
  4 11  1  0  0  0  0
  4 22  1  0  0  0  0
  5  6  2  0  0  0  0
  5 10  1  0  0  0  0
  6  7  1  0  0  0  0
  7  8  1  0  0  0  0
  7 38  1  0  0  0  0
  7 39  1  0  0  0  0
  8  9  1  0  0  0  0
  8 40  1  0  0  0  0
  8 41  1  0  0  0  0
  9 10  1  0  0  0  0
  9 42  1  0  0  0  0
  9 43  1  0  0  0  0
 11 12  1  0  0  0  0
 11 21  2  0  0  0  0
 12 13  2  0  0  0  0
 12 44  1  0  0  0  0
 13 14  1  0  0  0  0
 13 45  1  0  0  0  0
 14 15  1  0  0  0  0
 14 20  2  0  0  0  0
 15 16  1  0  0  0  0
 16 17  1  0  0  0  0
 16 18  1  0  0  0  0
 16 19  1  0  0  0  0
 20 21  1  0  0  0  0
 20 46  1  0  0  0  0
 21 47  1  0  0  0  0
 22 23  1  0  0  0  0
 22 27  2  0  0  0  0
 23 24  2  0  0  0  0
 23 48  1  0  0  0  0
 24 25  1  0  0  0  0
 24 49  1  0  0  0  0
 25 26  2  0  0  0  0
 25 50  1  0  0  0  0
 26 27  1  0  0  0  0
 26 28  1  0  0  0  0
 27 51  1  0  0  0  0
 28 29  1  0  0  0  0
 28 33  2  0  0  0  0
 29 30  2  0  0  0  0
 29 52  1  0  0  0  0
 30 31  1  0  0  0  0
 30 53  1  0  0  0  0
 31 32  2  0  0  0  0
 31 54  1  0  0  0  0
 32 33  1  0  0  0  0
 33 34  1  0  0  0  0
M  CHG  1   3   1
M  END
>  <PARENT_CMPD_ID>
CHEMBL576258

>  <STANDARD_TYPE>
IC50

>  <RELATION>
=

>  <STANDARD_VALUE>
20

>  <STANDARD_UNITS>
nM

>  <COMPOUND_KEY>
(R)-37

>  <PUBMED_ID>
19757823

>  <JOURNAL>
J. Med. Chem.

>  <YEAR>
2009

>  <VOLUME>
52

>  <FIRST_PAGE>
6314

>  <Company>
Wyeth

>  <idx>
493

>  <Model>
Valid

>  <target>
7.6989698

>  <des_pred_mlr>
7.0699601

>  <RF_Canvas>
7.0897422

>  <DNN_Canvas>
7.1647191

>  <pred_CoMFA>
7.5830002

>  <pred_COMSIA>
6.5444999

>  <pred_abm5>
7.2511306

>  <pred_ff8>
5.6306334

>  <pred_gau6>
7.2322755

>  <CID>
BACE_493

>  <active>
1

>  <des_class_bayes>
1

>  <maacs_class_bayes>
0

>  <radial_class_bayes>
0

>  <dend_class_bayes>
0

>  <molprint_class_bayes>
0

>  <RF_canvas>
1

>  <DNN_canvas>
1

$$$$
CHEMBL567688
  MOE2015           3D

 50 53  0  0  1  0  0  0  0  0999 V2000
   22.5420   12.0510   25.2170 C   0  0  0  0  0  0  0  0  0  0  0  0
   16.1910    9.0250   20.8760 H   0  0  0  0  0  0  0  0  0  0  0  0
   22.4370   11.3440   23.9500 N   0  0  0  0  0  0  0  0  0  0  0  0
   21.9170   13.1200   22.5390 O   0  0  0  0  0  0  0  0  0  0  0  0
   22.1300   11.9340   22.7550 C   0  0  0  0  0  0  0  0  0  0  0  0
   15.6230   10.6840   20.6620 H   0  0  0  0  0  0  0  0  0  0  0  0
   22.5300    9.6250   22.5170 N   0  0  0  0  0  0  0  0  0  0  0  0
   17.0020   10.0830   19.2770 O   0  0  0  0  0  0  0  0  0  0  0  0
   22.1360   10.8190   21.7020 C   0  0  3  0  0  0  0  0  0  0  0  0
   15.0500    9.4190   19.5580 H   0  0  0  0  0  0  0  0  0  0  0  0
   22.8410    9.1710   24.8160 N   0  0  0  0  0  0  0  0  0  0  0  0
   22.6160   10.0100   23.7570 C   0  0  0  0  0  0  0  0  0  0  0  0
   26.2490   11.8190   17.9560 F   0  0  0  0  0  0  0  0  0  0  0  0
   28.7600   10.0870   21.8590 N   0  0  0  0  0  0  0  0  0  0  0  0
   20.7500   10.6550   21.0560 C   0  0  0  0  0  0  0  0  0  0  0  0
   29.1990   12.2420   20.8890 N   0  0  0  0  0  0  0  0  0  0  0  0
   20.3200    9.4100   20.5780 C   0  0  0  0  0  0  0  0  0  0  0  0
   19.0610    9.2650   19.9920 C   0  0  0  0  0  0  0  0  0  0  0  0
   18.2040   10.3610   19.8670 C   0  0  0  0  0  0  0  0  0  0  0  0
   18.6180   11.6060   20.3350 C   0  0  0  0  0  0  0  0  0  0  0  0
   19.8770   11.7510   20.9230 C   0  0  0  0  0  0  0  0  0  0  0  0
   15.9110    9.7730   20.1300 C   0  0  0  0  0  0  0  0  0  0  0  0
   23.2100   11.0930   20.6460 C   0  0  0  0  0  0  0  0  0  0  0  0
   22.9250   11.3770   19.3040 C   0  0  0  0  0  0  0  0  0  0  0  0
   23.9630   11.6180   18.4070 C   0  0  0  0  0  0  0  0  0  0  0  0
   25.2820   11.5770   18.8480 C   0  0  0  0  0  0  0  0  0  0  0  0
   25.6140   11.2990   20.1800 C   0  0  0  0  0  0  0  0  0  0  0  0
   24.5530   11.0600   21.0630 C   0  0  0  0  0  0  0  0  0  0  0  0
   26.9960   11.2530   20.6650 C   0  0  0  0  0  0  0  0  0  0  0  0
   27.4980   10.1770   21.3900 C   0  0  0  0  0  0  0  0  0  0  0  0
   29.5450   11.1390   21.5760 C   0  0  0  0  0  0  0  0  0  0  0  0
   27.9210   12.2690   20.4490 C   0  0  0  0  0  0  0  0  0  0  0  0
   22.3460   13.1120   25.0590 H   0  0  0  0  0  0  0  0  0  0  0  0
   23.5460   11.9230   25.6220 H   0  0  0  0  0  0  0  0  0  0  0  0
   21.8130   11.6480   25.9200 H   0  0  0  0  0  0  0  0  0  0  0  0
   22.9530    8.1790   24.6600 H   0  0  0  0  0  0  0  0  0  0  0  0
   22.8950    9.5440   25.7530 H   0  0  0  0  0  0  0  0  0  0  0  0
   20.9700    8.5520   20.6640 H   0  0  0  0  0  0  0  0  0  0  0  0
   18.7470    8.2960   19.6320 H   0  0  0  0  0  0  0  0  0  0  0  0
   17.7180   12.7820   20.2080 C   0  0  0  0  0  0  0  0  0  0  0  0
   18.2090   13.6610   20.6260 H   0  0  0  0  0  0  0  0  0  0  0  0
   16.7920   12.5910   20.7500 H   0  0  0  0  0  0  0  0  0  0  0  0
   17.4940   12.9570   19.1560 H   0  0  0  0  0  0  0  0  0  0  0  0
   20.1860   12.7220   21.2820 H   0  0  0  0  0  0  0  0  0  0  0  0
   21.9000   11.4090   18.9650 H   0  0  0  0  0  0  0  0  0  0  0  0
   23.7450   11.8360   17.3720 H   0  0  0  0  0  0  0  0  0  0  0  0
   24.7730   10.8430   22.0980 H   0  0  0  0  0  0  0  0  0  0  0  0
   26.8290    9.3540   21.5920 H   0  0  0  0  0  0  0  0  0  0  0  0
   30.5610   11.0950   21.9380 H   0  0  0  0  0  0  0  0  0  0  0  0
   27.5970   13.1360   19.8930 H   0  0  0  0  0  0  0  0  0  0  0  0
  1  3  1  0  0  0  0
  1 33  1  0  0  0  0
  1 34  1  0  0  0  0
  1 35  1  0  0  0  0
  2 22  1  0  0  0  0
  3  5  1  0  0  0  0
  3 12  1  0  0  0  0
  4  5  2  0  0  0  0
  5  9  1  0  0  0  0
  6 22  1  0  0  0  0
  7  9  1  0  0  0  0
  7 12  2  0  0  0  0
  8 19  1  0  0  0  0
  8 22  1  0  0  0  0
  9 15  1  0  0  0  0
  9 23  1  0  0  0  0
 10 22  1  0  0  0  0
 11 12  1  0  0  0  0
 11 36  1  0  0  0  0
 11 37  1  0  0  0  0
 13 26  1  0  0  0  0
 14 30  2  0  0  0  0
 14 31  1  0  0  0  0
 15 17  1  0  0  0  0
 15 21  2  0  0  0  0
 16 31  2  0  0  0  0
 16 32  1  0  0  0  0
 17 18  2  0  0  0  0
 17 38  1  0  0  0  0
 18 19  1  0  0  0  0
 18 39  1  0  0  0  0
 19 20  2  0  0  0  0
 20 21  1  0  0  0  0
 20 40  1  0  0  0  0
 21 44  1  0  0  0  0
 23 24  1  0  0  0  0
 23 28  2  0  0  0  0
 24 25  2  0  0  0  0
 24 45  1  0  0  0  0
 25 26  1  0  0  0  0
 25 46  1  0  0  0  0
 26 27  2  0  0  0  0
 27 28  1  0  0  0  0
 27 29  1  0  0  0  0
 28 47  1  0  0  0  0
 29 30  1  0  0  0  0
 29 32  2  0  0  0  0
 30 48  1  0  0  0  0
 31 49  1  0  0  0  0
 32 50  1  0  0  0  0
 40 41  1  0  0  0  0
 40 42  1  0  0  0  0
 40 43  1  0  0  0  0
M  END
>  <PARENT_CMPD_ID>
CHEMBL567688

>  <STANDARD_TYPE>
IC50

>  <RELATION>
=

>  <STANDARD_VALUE>
20

>  <STANDARD_UNITS>
nM

>  <COMPOUND_KEY>
60

>  <PUBMED_ID>
19968289

>  <JOURNAL>
J. Med. Chem.

>  <YEAR>
2010

>  <VOLUME>
53

>  <FIRST_PAGE>
1146

>  <Company>
Wyeth

>  <idx>
494

>  <Model>
Valid

>  <target>
7.6989698

>  <des_pred_mlr>
6.9617701

>  <RF_Canvas>
7.52771

>  <DNN_Canvas>
7.6965518

>  <pred_CoMFA>
8.1349001

>  <pred_COMSIA>
6.8217001

>  <pred_abm5>
7.6529155

>  <pred_ff8>
6.4425926

>  <pred_gau6>
7.4704156

>  <CID>
BACE_494

>  <active>
1

>  <des_class_bayes>
1

>  <maacs_class_bayes>
1

>  <radial_class_bayes>
0

>  <dend_class_bayes>
1

>  <molprint_class_bayes>
1

>  <RF_canvas>
1

>  <DNN_canvas>
1

$$$$
CHEMBL566011
  MOE2015           3D

 51 54  0  0  1  0  0  0  0  0999 V2000
   22.6750   12.0160   25.0630 C   0  0  0  0  0  0  0  0  0  0  0  0
   22.4690   11.2750   23.8360 N   0  0  0  0  0  0  0  0  0  0  0  0
   22.0950   13.0720   22.4660 O   0  0  0  0  0  0  0  0  0  0  0  0
   22.1920   11.8670   22.6460 C   0  0  0  0  0  0  0  0  0  0  0  0
   22.2820    9.5150   22.4530 N   0  0  0  0  0  0  0  0  0  0  0  0
   22.0620   10.7320   21.5940 C   0  0  3  0  0  0  0  0  0  0  0  0
   22.6290    9.0760   24.6900 N   0  0  0  0  0  0  0  0  0  0  0  0
   22.5110    9.9390   23.6550 C   0  0  0  0  0  0  0  0  0  0  0  0
   18.1170   10.3450   19.7520 C   0  0  0  0  0  0  0  0  0  0  0  0
   16.8700   10.3000   19.1910 O   0  0  0  0  0  0  0  0  0  0  0  0
   16.3930    9.0370   18.7470 C   0  0  0  0  0  0  0  0  0  0  0  0
   15.3950    9.1870   18.3250 H   0  0  0  0  0  0  0  0  0  0  0  0
   16.2980    8.3350   19.5820 H   0  0  0  0  0  0  0  0  0  0  0  0
   17.0310    8.6300   17.9560 H   0  0  0  0  0  0  0  0  0  0  0  0
   20.6720   10.6130   20.9460 C   0  0  0  0  0  0  0  0  0  0  0  0
   28.7140    9.9100   21.8280 N   0  0  0  0  0  0  0  0  0  0  0  0
   20.2100    9.3530   20.5220 C   0  0  0  0  0  0  0  0  0  0  0  0
   18.9580    9.2460   19.9390 C   0  0  0  0  0  0  0  0  0  0  0  0
   18.5570   11.5990   20.1630 C   0  0  0  0  0  0  0  0  0  0  0  0
   19.8240   11.7090   20.7510 C   0  0  0  0  0  0  0  0  0  0  0  0
   23.1770   10.9430   20.5470 C   0  0  0  0  0  0  0  0  0  0  0  0
   22.9140   11.1780   19.1860 C   0  0  0  0  0  0  0  0  0  0  0  0
   23.9630   11.3640   18.2820 C   0  0  0  0  0  0  0  0  0  0  0  0
   25.2910   11.3210   18.7120 C   0  0  0  0  0  0  0  0  0  0  0  0
   25.5910   11.0900   20.0610 C   0  0  0  0  0  0  0  0  0  0  0  0
   24.5220   10.9050   20.9540 C   0  0  0  0  0  0  0  0  0  0  0  0
   26.9730   11.0480   20.5590 C   0  0  0  0  0  0  0  0  0  0  0  0
   27.8880   12.0720   20.2730 C   0  0  0  0  0  0  0  0  0  0  0  0
   29.1940   12.0140   20.7550 C   0  0  0  0  0  0  0  0  0  0  0  0
   29.5600   10.9220   21.5240 C   0  0  0  0  0  0  0  0  0  0  0  0
   27.4480    9.9980   21.3430 C   0  0  0  0  0  0  0  0  0  0  0  0
   22.5720   13.0830   24.8650 H   0  0  0  0  0  0  0  0  0  0  0  0
   23.6750   11.8130   25.4470 H   0  0  0  0  0  0  0  0  0  0  0  0
   21.9340   11.7100   25.8010 H   0  0  0  0  0  0  0  0  0  0  0  0
   22.5380    8.0830   24.5320 H   0  0  0  0  0  0  0  0  0  0  0  0
   22.8080    9.4250   25.6210 H   0  0  0  0  0  0  0  0  0  0  0  0
   20.8270    8.4760   20.6500 H   0  0  0  0  0  0  0  0  0  0  0  0
   18.6230    8.2690   19.6230 H   0  0  0  0  0  0  0  0  0  0  0  0
   17.6970   12.8200   19.9880 C   0  0  0  0  0  0  0  0  0  0  0  0
   16.7620   12.7080   20.5460 H   0  0  0  0  0  0  0  0  0  0  0  0
   17.4720   12.9760   18.9280 H   0  0  0  0  0  0  0  0  0  0  0  0
   18.1970   13.7220   20.3560 H   0  0  0  0  0  0  0  0  0  0  0  0
   20.1270   12.6990   21.0570 H   0  0  0  0  0  0  0  0  0  0  0  0
   21.8930   11.2150   18.8360 H   0  0  0  0  0  0  0  0  0  0  0  0
   23.7450   11.5430   17.2400 H   0  0  0  0  0  0  0  0  0  0  0  0
   26.0910   11.4670   18.0010 H   0  0  0  0  0  0  0  0  0  0  0  0
   24.7430   10.7260   21.9960 H   0  0  0  0  0  0  0  0  0  0  0  0
   27.5770   12.9140   19.6730 H   0  0  0  0  0  0  0  0  0  0  0  0
   29.9020   12.7990   20.5350 H   0  0  0  0  0  0  0  0  0  0  0  0
   30.5710   10.8750   21.9000 H   0  0  0  0  0  0  0  0  0  0  0  0
   26.5950    9.0050   21.6400 F   0  0  0  0  0  0  0  0  0  0  0  0
  1  2  1  0  0  0  0
  1 32  1  0  0  0  0
  1 33  1  0  0  0  0
  1 34  1  0  0  0  0
  2  4  1  0  0  0  0
  2  8  1  0  0  0  0
  3  4  2  0  0  0  0
  4  6  1  0  0  0  0
  5  6  1  0  0  0  0
  5  8  2  0  0  0  0
  6 15  1  0  0  0  0
  6 21  1  0  0  0  0
  7  8  1  0  0  0  0
  7 35  1  0  0  0  0
  7 36  1  0  0  0  0
  9 10  1  0  0  0  0
  9 18  2  0  0  0  0
  9 19  1  0  0  0  0
 10 11  1  0  0  0  0
 11 12  1  0  0  0  0
 11 13  1  0  0  0  0
 11 14  1  0  0  0  0
 15 17  2  0  0  0  0
 15 20  1  0  0  0  0
 16 30  2  0  0  0  0
 16 31  1  0  0  0  0
 17 18  1  0  0  0  0
 17 37  1  0  0  0  0
 18 38  1  0  0  0  0
 19 20  2  0  0  0  0
 19 39  1  0  0  0  0
 20 43  1  0  0  0  0
 21 22  1  0  0  0  0
 21 26  2  0  0  0  0
 22 23  2  0  0  0  0
 22 44  1  0  0  0  0
 23 24  1  0  0  0  0
 23 45  1  0  0  0  0
 24 25  2  0  0  0  0
 24 46  1  0  0  0  0
 25 26  1  0  0  0  0
 25 27  1  0  0  0  0
 26 47  1  0  0  0  0
 27 28  1  0  0  0  0
 27 31  2  0  0  0  0
 28 29  2  0  0  0  0
 28 48  1  0  0  0  0
 29 30  1  0  0  0  0
 29 49  1  0  0  0  0
 30 50  1  0  0  0  0
 31 51  1  0  0  0  0
 39 40  1  0  0  0  0
 39 41  1  0  0  0  0
 39 42  1  0  0  0  0
M  END
>  <PARENT_CMPD_ID>
CHEMBL566011

>  <STANDARD_TYPE>
IC50

>  <RELATION>
=

>  <STANDARD_VALUE>
20

>  <STANDARD_UNITS>
nM

>  <COMPOUND_KEY>
3a

>  <PUBMED_ID>
20045648

>  <JOURNAL>
Bioorg. Med. Chem.

>  <YEAR>
2010

>  <VOLUME>
18

>  <FIRST_PAGE>
630

>  <Company>
Wyeth

>  <idx>
495

>  <Model>
Valid

>  <target>
7.6989698

>  <des_pred_mlr>
6.6780801

>  <RF_Canvas>
7.3049374

>  <DNN_Canvas>
7.5613875

>  <pred_CoMFA>
7.7768002

>  <pred_COMSIA>
6.9355998

>  <pred_abm5>
7.6469417

>  <pred_ff8>
6.2724948

>  <pred_gau6>
7.4451261

>  <CID>
BACE_495

>  <active>
1

>  <des_class_bayes>
0

>  <maacs_class_bayes>
1

>  <radial_class_bayes>
0

>  <dend_class_bayes>
0

>  <molprint_class_bayes>
0

>  <RF_canvas>
1

>  <DNN_canvas>
1

$$$$
CHEMBL1092146
  MOE2015           3D

 72 75  0  0  1  0  0  0  0  0999 V2000
   30.1260    9.3260   23.0450 C   0  0  0  0  0  0  0  0  0  0  0  0
   30.6050   10.3870   22.2680 C   0  0  0  0  0  0  0  0  0  0  0  0
   31.9740   10.6790   22.3010 C   0  0  0  0  0  0  0  0  0  0  0  0
   32.8440    9.9180   23.0690 C   0  0  0  0  0  0  0  0  0  0  0  0
   32.3450    8.8700   23.8170 C   0  0  0  0  0  0  0  0  0  0  0  0
   30.9960    8.5700   23.8190 C   0  0  0  0  0  0  0  0  0  0  0  0
   29.6930   11.2060   21.3810 C   0  0  3  0  0  0  0  0  0  0  0  0
   28.7200   11.9440   22.1670 N   0  0  0  0  0  0  0  0  0  0  0  0
   28.7770   13.3140   22.3190 C   0  0  0  0  0  0  0  0  0  0  0  0
   27.7370   13.9130   23.1890 C   0  0  0  0  0  0  0  0  0  0  0  0
   26.4540   13.3830   23.2310 C   0  0  0  0  0  0  0  0  0  0  0  0
   25.5000   13.9200   24.0890 C   0  0  0  0  0  0  0  0  0  0  0  0
   25.8360   15.0120   24.8870 C   0  0  0  0  0  0  0  0  0  0  0  0
   27.1060   15.5710   24.8260 C   0  0  0  0  0  0  0  0  0  0  0  0
   28.0540   15.0230   23.9680 C   0  0  0  0  0  0  0  0  0  0  0  0
   27.4220   16.6830   25.6650 N   0  0  0  0  0  0  0  0  0  0  0  0
   28.7140   16.5860   26.7490 S   0  0  0  0  0  0  0  0  0  0  0  0
   29.9170   17.6040   25.9280 C   0  0  0  0  0  0  0  0  0  0  0  0
   26.5030   17.8180   25.7620 C   0  0  0  0  0  0  0  0  0  0  0  0
   29.6270   14.0260   21.8030 O   0  0  0  0  0  0  0  0  0  0  0  0
   29.2240   15.2340   26.7840 O   0  0  0  0  0  0  0  0  0  0  0  0
   28.3420   17.2630   27.9720 O   0  0  0  0  0  0  0  0  0  0  0  0
   28.9850   10.3320   20.3510 C   0  0  0  0  0  0  0  0  0  0  0  0
   33.1830    8.1330   24.5480 F   0  0  0  0  0  0  0  0  0  0  0  0
   22.4080   10.3230   23.4540 C   0  0  3  0  0  0  0  0  0  0  0  0
   23.5400    9.4360   23.8690 N   0  3  0  0  0  0  0  0  0  0  0  0
   21.1710    9.8060   24.1950 C   0  0  0  0  0  0  0  0  0  0  0  0
   22.1660   10.2100   21.9280 C   0  0  0  0  0  0  0  0  0  0  0  0
   25.3200   11.7140   19.4300 C   0  0  0  0  0  0  0  0  0  0  0  0
   24.3190   12.5650   19.8690 C   0  0  0  0  0  0  0  0  0  0  0  0
   23.2930   12.0710   20.6630 C   0  0  0  0  0  0  0  0  0  0  0  0
   23.2640   10.7250   21.0380 C   0  0  0  0  0  0  0  0  0  0  0  0
   24.2680    9.8750   20.5770 C   0  0  0  0  0  0  0  0  0  0  0  0
   25.2890   10.3700   19.7750 C   0  0  0  0  0  0  0  0  0  0  0  0
   22.0070   12.7990   24.2900 C   0  0  0  0  0  0  0  0  0  0  0  0
   20.9360   12.8410   24.4410 H   0  0  0  0  0  0  0  0  0  0  0  0
   22.9320   13.8500   24.4830 C   0  0  0  0  0  0  0  0  0  0  0  0
   22.7090   14.8580   24.8070 H   0  0  0  0  0  0  0  0  0  0  0  0
   24.1700   13.3570   24.1420 C   0  0  0  0  0  0  0  0  0  0  0  0
   24.0590   12.0490   23.7900 O   0  0  0  0  0  0  0  0  0  0  0  0
   22.7390   11.7170   23.8600 C   0  0  0  0  0  0  0  0  0  0  0  0
   29.0700    9.0690   23.0430 H   0  0  0  0  0  0  0  0  0  0  0  0
   32.3730   11.5060   21.7160 H   0  0  0  0  0  0  0  0  0  0  0  0
   33.9080   10.1320   23.0820 H   0  0  0  0  0  0  0  0  0  0  0  0
   30.6320    7.7370   24.4140 H   0  0  0  0  0  0  0  0  0  0  0  0
   30.3010   11.9270   20.8190 H   0  0  0  0  0  0  0  0  0  0  0  0
   28.0100   11.4080   22.6440 H   0  0  0  0  0  0  0  0  0  0  0  0
   26.1790   12.5610   22.5750 H   0  0  0  0  0  0  0  0  0  0  0  0
   25.1060   15.4220   25.5800 H   0  0  0  0  0  0  0  0  0  0  0  0
   29.0560   15.4410   23.9090 H   0  0  0  0  0  0  0  0  0  0  0  0
   30.1660   17.1710   24.9590 H   0  0  0  0  0  0  0  0  0  0  0  0
   30.8110   17.6350   26.5540 H   0  0  0  0  0  0  0  0  0  0  0  0
   29.5170   18.6130   25.8130 H   0  0  0  0  0  0  0  0  0  0  0  0
   26.0150   18.0070   24.8000 H   0  0  0  0  0  0  0  0  0  0  0  0
   27.0380   18.7350   26.0280 H   0  0  0  0  0  0  0  0  0  0  0  0
   25.7350   17.6270   26.5180 H   0  0  0  0  0  0  0  0  0  0  0  0
   28.2830    9.6320   20.8170 H   0  0  0  0  0  0  0  0  0  0  0  0
   29.7040    9.7490   19.7660 H   0  0  0  0  0  0  0  0  0  0  0  0
   28.4140   10.9540   19.6550 H   0  0  0  0  0  0  0  0  0  0  0  0
   23.4550    8.4800   23.5110 H   0  0  0  0  0  0  0  0  0  0  0  0
   23.6290    9.3930   24.8910 H   0  0  0  0  0  0  0  0  0  0  0  0
   24.4180    9.8370   23.5100 H   0  0  0  0  0  0  0  0  0  0  0  0
   20.9670    8.7570   23.9480 H   0  0  0  0  0  0  0  0  0  0  0  0
   20.2750   10.3820   23.9340 H   0  0  0  0  0  0  0  0  0  0  0  0
   21.2930    9.8720   25.2830 H   0  0  0  0  0  0  0  0  0  0  0  0
   21.2430   10.7490   21.6660 H   0  0  0  0  0  0  0  0  0  0  0  0
   21.9610    9.1630   21.6630 H   0  0  0  0  0  0  0  0  0  0  0  0
   26.1180   12.0950   18.7970 H   0  0  0  0  0  0  0  0  0  0  0  0
   24.3320   13.6130   19.5820 H   0  0  0  0  0  0  0  0  0  0  0  0
   22.5110   12.7550   20.9880 H   0  0  0  0  0  0  0  0  0  0  0  0
   24.2570    8.8140   20.8120 H   0  0  0  0  0  0  0  0  0  0  0  0
   26.0600    9.7000   19.4040 H   0  0  0  0  0  0  0  0  0  0  0  0
  1  2  1  0  0  0  0
  1  6  2  0  0  0  0
  1 42  1  0  0  0  0
  2  3  2  0  0  0  0
  2  7  1  0  0  0  0
  3  4  1  0  0  0  0
  3 43  1  0  0  0  0
  4  5  2  0  0  0  0
  4 44  1  0  0  0  0
  5  6  1  0  0  0  0
  5 24  1  0  0  0  0
  6 45  1  0  0  0  0
  7  8  1  0  0  0  0
  7 23  1  0  0  0  0
  7 46  1  0  0  0  0
  8  9  1  0  0  0  0
  8 47  1  0  0  0  0
  9 10  1  0  0  0  0
  9 20  2  0  0  0  0
 10 11  1  0  0  0  0
 10 15  2  0  0  0  0
 11 12  2  0  0  0  0
 11 48  1  0  0  0  0
 12 13  1  0  0  0  0
 12 39  1  0  0  0  0
 13 14  2  0  0  0  0
 13 49  1  0  0  0  0
 14 15  1  0  0  0  0
 14 16  1  0  0  0  0
 15 50  1  0  0  0  0
 16 17  1  0  0  0  0
 16 19  1  0  0  0  0
 17 18  1  0  0  0  0
 17 21  2  0  0  0  0
 17 22  2  0  0  0  0
 18 51  1  0  0  0  0
 18 52  1  0  0  0  0
 18 53  1  0  0  0  0
 19 54  1  0  0  0  0
 19 55  1  0  0  0  0
 19 56  1  0  0  0  0
 23 57  1  0  0  0  0
 23 58  1  0  0  0  0
 23 59  1  0  0  0  0
 25 26  1  0  0  0  0
 25 27  1  0  0  0  0
 25 28  1  0  0  0  0
 25 41  1  0  0  0  0
 26 60  1  0  0  0  0
 26 61  1  0  0  0  0
 26 62  1  0  0  0  0
 27 63  1  0  0  0  0
 27 64  1  0  0  0  0
 27 65  1  0  0  0  0
 28 32  1  0  0  0  0
 28 66  1  0  0  0  0
 28 67  1  0  0  0  0
 29 30  1  0  0  0  0
 29 34  2  0  0  0  0
 29 68  1  0  0  0  0
 30 31  2  0  0  0  0
 30 69  1  0  0  0  0
 31 32  1  0  0  0  0
 31 70  1  0  0  0  0
 32 33  2  0  0  0  0
 33 34  1  0  0  0  0
 33 71  1  0  0  0  0
 34 72  1  0  0  0  0
 35 36  1  0  0  0  0
 35 37  1  0  0  0  0
 35 41  2  0  0  0  0
 37 38  1  0  0  0  0
 37 39  2  0  0  0  0
 39 40  1  0  0  0  0
 40 41  1  0  0  0  0
M  CHG  1  26   1
M  END
>  <PARENT_CMPD_ID>
CHEMBL1092146

>  <STANDARD_TYPE>
IC50

>  <RELATION>
=

>  <STANDARD_VALUE>
20

>  <STANDARD_UNITS>
nM

>  <COMPOUND_KEY>
28, mixture of diastereomer

>  <PUBMED_ID>
20176482

>  <JOURNAL>
Bioorg. Med. Chem. Lett.

>  <YEAR>
2010

>  <VOLUME>
20

>  <FIRST_PAGE>
1885

>  <Company>
Merck

>  <idx>
496

>  <Model>
Valid

>  <target>
7.6989698

>  <des_pred_mlr>
7.4278302

>  <RF_Canvas>
7.7084241

>  <DNN_Canvas>
7.525156

>  <pred_CoMFA>
7.2528

>  <pred_COMSIA>
6.7290001

>  <pred_abm5>
7.1376014

>  <pred_ff8>
7.1453967

>  <pred_gau6>
7.3077703

>  <CID>
BACE_496

>  <active>
1

>  <des_class_bayes>
1

>  <maacs_class_bayes>
1

>  <radial_class_bayes>
0

>  <dend_class_bayes>
1

>  <molprint_class_bayes>
1

>  <RF_canvas>
1

>  <DNN_canvas>
1

$$$$
CHEMBL1210346
  MOE2015           3D

 89 92  0  0  1  0  0  0  0  0999 V2000
   20.9260   12.3020   27.6030 C   0  0  0  0  0  0  0  0  0  0  0  0
   20.2640   11.1570   26.8570 C   0  0  3  0  0  0  0  0  0  0  0  0
   21.2670   10.3660   26.1000 N   0  3  0  0  0  0  0  0  0  0  0  0
   21.8970   11.1270   25.0050 C   0  0  0  0  0  0  0  0  0  0  0  0
   22.4530   10.1390   23.9780 C   0  0  3  0  0  0  0  0  0  0  0  0
   21.3320    9.3440   23.5740 O   0  0  0  0  0  0  0  0  0  0  0  0
   23.1060   10.8440   22.7960 C   0  0  3  0  0  0  0  0  0  0  0  0
   23.4280    9.8950   21.6440 C   0  0  0  0  0  0  0  0  0  0  0  0
   24.3110   10.5370   20.6000 C   0  0  0  0  0  0  0  0  0  0  0  0
   23.9700   11.7390   19.9960 C   0  0  0  0  0  0  0  0  0  0  0  0
   24.8050   12.3030   19.0450 C   0  0  0  0  0  0  0  0  0  0  0  0
   25.9840   11.6730   18.6870 C   0  0  0  0  0  0  0  0  0  0  0  0
   26.3250   10.4770   19.2830 C   0  0  0  0  0  0  0  0  0  0  0  0
   25.4930    9.9130   20.2330 C   0  0  0  0  0  0  0  0  0  0  0  0
   24.3240   11.5430   23.2230 N   0  0  0  0  0  0  0  0  0  0  0  0
   24.3340   12.9010   23.3860 C   0  0  0  0  0  0  0  0  0  0  0  0
   23.3260   13.6080   23.3880 O   0  0  0  0  0  0  0  0  0  0  0  0
   25.6870   13.4610   23.5640 C   0  0  0  0  0  0  0  0  0  0  0  0
   26.7520   12.9530   22.8410 C   0  0  0  0  0  0  0  0  0  0  0  0
   28.0260   13.4740   23.0230 C   0  0  0  0  0  0  0  0  0  0  0  0
   28.2310   14.5110   23.9240 C   0  0  0  0  0  0  0  0  0  0  0  0
   27.1480   15.0100   24.6360 C   0  0  0  0  0  0  0  0  0  0  0  0
   25.8780   14.4890   24.4640 C   0  0  0  0  0  0  0  0  0  0  0  0
   27.2970   16.0860   25.5750 N   0  0  0  0  0  0  0  0  0  0  0  0
   26.4820   17.2510   25.3990 C   0  0  0  0  0  0  0  0  0  0  0  0
   26.6630   18.0220   24.2710 C   0  0  0  0  0  0  0  0  0  0  0  0
   25.8640   19.1370   24.1070 C   0  0  0  0  0  0  0  0  0  0  0  0
   24.9250   19.4590   25.0620 C   0  0  0  0  0  0  0  0  0  0  0  0
   24.7560   18.6790   26.1830 C   0  0  0  0  0  0  0  0  0  0  0  0
   24.0130   18.9430   26.9210 H   0  0  0  0  0  0  0  0  0  0  0  0
   25.5390   17.5590   26.3600 C   0  0  0  0  0  0  0  0  0  0  0  0
   25.4180   16.9340   27.2330 H   0  0  0  0  0  0  0  0  0  0  0  0
   28.6320   16.2090   26.6040 S   0  0  0  0  0  0  0  0  0  0  0  0
   29.7320   17.2750   25.7120 C   0  0  0  0  0  0  0  0  0  0  0  0
   29.2570   14.9140   26.6820 O   0  0  0  0  0  0  0  0  0  0  0  0
   28.2360   16.9430   27.7840 O   0  0  0  0  0  0  0  0  0  0  0  0
   19.1940   11.6850   25.9180 C   0  0  0  0  0  0  0  0  0  0  0  0
   19.1500   12.8440   25.5090 O   0  0  0  0  0  0  0  0  0  0  0  0
   18.2590   10.7320   25.5800 N   0  0  0  0  0  0  0  0  0  0  0  0
   17.1780   11.0790   24.6520 C   0  0  0  0  0  0  0  0  0  0  0  0
   16.9820    9.9360   23.6870 C   0  0  0  0  0  0  0  0  0  0  0  0
   15.8540   10.1920   22.6900 C   0  0  0  0  0  0  0  0  0  0  0  0
   14.5580   10.4610   23.4320 C   0  0  0  0  0  0  0  0  0  0  0  0
   14.7700   11.6410   24.3720 C   0  0  0  0  0  0  0  0  0  0  0  0
   15.8730   11.3210   25.3830 C   0  0  0  0  0  0  0  0  0  0  0  0
   21.6900   11.9060   28.2720 H   0  0  0  0  0  0  0  0  0  0  0  0
   20.1760   12.8380   28.1850 H   0  0  0  0  0  0  0  0  0  0  0  0
   21.3860   12.9840   26.8880 H   0  0  0  0  0  0  0  0  0  0  0  0
   19.7950   10.5010   27.5910 H   0  0  0  0  0  0  0  0  0  0  0  0
   20.8080    9.5570   25.7070 H   0  0  0  0  0  0  0  0  0  0  0  0
   21.9890   10.0660   26.7400 H   0  0  0  0  0  0  0  0  0  0  0  0
   22.7070   11.7380   25.4020 H   0  0  0  0  0  0  0  0  0  0  0  0
   21.1550   11.7700   24.5310 H   0  0  0  0  0  0  0  0  0  0  0  0
   23.2470    9.5260   24.4060 H   0  0  0  0  0  0  0  0  0  0  0  0
   20.6720    9.9370   23.2080 H   0  0  0  0  0  0  0  0  0  0  0  0
   22.3790   11.5660   22.4250 H   0  0  0  0  0  0  0  0  0  0  0  0
   22.4950    9.5870   21.1720 H   0  0  0  0  0  0  0  0  0  0  0  0
   23.9390    9.0190   22.0440 H   0  0  0  0  0  0  0  0  0  0  0  0
   23.0510   12.2360   20.2680 H   0  0  0  0  0  0  0  0  0  0  0  0
   24.5340   13.2400   18.5800 H   0  0  0  0  0  0  0  0  0  0  0  0
   26.6330   12.1150   17.9460 H   0  0  0  0  0  0  0  0  0  0  0  0
   27.2430    9.9800   19.0070 H   0  0  0  0  0  0  0  0  0  0  0  0
   25.7670    8.9760   20.6940 H   0  0  0  0  0  0  0  0  0  0  0  0
   25.1660   11.0140   23.3990 H   0  0  0  0  0  0  0  0  0  0  0  0
   26.5920   12.1510   22.1350 H   0  0  0  0  0  0  0  0  0  0  0  0
   28.8580   13.0730   22.4640 H   0  0  0  0  0  0  0  0  0  0  0  0
   29.2190   14.9230   24.0690 H   0  0  0  0  0  0  0  0  0  0  0  0
   25.0450   14.8830   25.0280 H   0  0  0  0  0  0  0  0  0  0  0  0
   27.4090   17.7620   23.5350 H   0  0  0  0  0  0  0  0  0  0  0  0
   25.9760   19.7570   23.2290 H   0  0  0  0  0  0  0  0  0  0  0  0
   24.1440   20.5790   24.8930 C   0  0  0  0  0  0  0  0  0  0  0  0
   23.2480   20.8110   25.8890 F   0  0  0  0  0  0  0  0  0  0  0  0
   24.9670   21.6580   24.8050 F   0  0  0  0  0  0  0  0  0  0  0  0
   23.4540   20.4400   23.7290 F   0  0  0  0  0  0  0  0  0  0  0  0
   30.0680   16.7730   24.8040 H   0  0  0  0  0  0  0  0  0  0  0  0
   30.5940   17.5120   26.3360 H   0  0  0  0  0  0  0  0  0  0  0  0
   29.2110   18.1950   25.4470 H   0  0  0  0  0  0  0  0  0  0  0  0
   18.3170    9.8010   25.9680 H   0  0  0  0  0  0  0  0  0  0  0  0
   17.4570   11.9950   24.1300 H   0  0  0  0  0  0  0  0  0  0  0  0
   16.7470    9.0360   24.2560 H   0  0  0  0  0  0  0  0  0  0  0  0
   17.9090    9.7840   23.1330 H   0  0  0  0  0  0  0  0  0  0  0  0
   15.7300    9.3170   22.0520 H   0  0  0  0  0  0  0  0  0  0  0  0
   16.1040   11.0570   22.0750 H   0  0  0  0  0  0  0  0  0  0  0  0
   14.2750    9.5800   24.0080 H   0  0  0  0  0  0  0  0  0  0  0  0
   13.7690   10.6980   22.7180 H   0  0  0  0  0  0  0  0  0  0  0  0
   13.8420   11.8480   24.9050 H   0  0  0  0  0  0  0  0  0  0  0  0
   15.0580   12.5170   23.7910 H   0  0  0  0  0  0  0  0  0  0  0  0
   15.9910   12.1600   26.0680 H   0  0  0  0  0  0  0  0  0  0  0  0
   15.6010   10.4280   25.9460 H   0  0  0  0  0  0  0  0  0  0  0  0
  1  2  1  0  0  0  0
  1 46  1  0  0  0  0
  1 47  1  0  0  0  0
  1 48  1  0  0  0  0
  2  3  1  0  0  0  0
  2 37  1  0  0  0  0
  2 49  1  0  0  0  0
  3  4  1  0  0  0  0
  3 50  1  0  0  0  0
  3 51  1  0  0  0  0
  4  5  1  0  0  0  0
  4 52  1  0  0  0  0
  4 53  1  0  0  0  0
  5  6  1  0  0  0  0
  5  7  1  0  0  0  0
  5 54  1  0  0  0  0
  6 55  1  0  0  0  0
  7  8  1  0  0  0  0
  7 15  1  0  0  0  0
  7 56  1  0  0  0  0
  8  9  1  0  0  0  0
  8 57  1  0  0  0  0
  8 58  1  0  0  0  0
  9 10  1  0  0  0  0
  9 14  2  0  0  0  0
 10 11  2  0  0  0  0
 10 59  1  0  0  0  0
 11 12  1  0  0  0  0
 11 60  1  0  0  0  0
 12 13  2  0  0  0  0
 12 61  1  0  0  0  0
 13 14  1  0  0  0  0
 13 62  1  0  0  0  0
 14 63  1  0  0  0  0
 15 16  1  0  0  0  0
 15 64  1  0  0  0  0
 16 17  2  0  0  0  0
 16 18  1  0  0  0  0
 18 19  1  0  0  0  0
 18 23  2  0  0  0  0
 19 20  2  0  0  0  0
 19 65  1  0  0  0  0
 20 21  1  0  0  0  0
 20 66  1  0  0  0  0
 21 22  2  0  0  0  0
 21 67  1  0  0  0  0
 22 23  1  0  0  0  0
 22 24  1  0  0  0  0
 23 68  1  0  0  0  0
 24 25  1  0  0  0  0
 24 33  1  0  0  0  0
 25 26  1  0  0  0  0
 25 31  2  0  0  0  0
 26 27  2  0  0  0  0
 26 69  1  0  0  0  0
 27 28  1  0  0  0  0
 27 70  1  0  0  0  0
 28 29  2  0  0  0  0
 28 71  1  0  0  0  0
 29 30  1  0  0  0  0
 29 31  1  0  0  0  0
 31 32  1  0  0  0  0
 33 34  1  0  0  0  0
 33 35  2  0  0  0  0
 33 36  2  0  0  0  0
 34 75  1  0  0  0  0
 34 76  1  0  0  0  0
 34 77  1  0  0  0  0
 37 38  2  0  0  0  0
 37 39  1  0  0  0  0
 39 40  1  0  0  0  0
 39 78  1  0  0  0  0
 40 41  1  0  0  0  0
 40 45  1  0  0  0  0
 40 79  1  0  0  0  0
 41 42  1  0  0  0  0
 41 80  1  0  0  0  0
 41 81  1  0  0  0  0
 42 43  1  0  0  0  0
 42 82  1  0  0  0  0
 42 83  1  0  0  0  0
 43 44  1  0  0  0  0
 43 84  1  0  0  0  0
 43 85  1  0  0  0  0
 44 45  1  0  0  0  0
 44 86  1  0  0  0  0
 44 87  1  0  0  0  0
 45 88  1  0  0  0  0
 45 89  1  0  0  0  0
 71 72  1  0  0  0  0
 71 73  1  0  0  0  0
 71 74  1  0  0  0  0
M  CHG  1   3   1
M  END
>  <PARENT_CMPD_ID>
CHEMBL1210346

>  <STANDARD_TYPE>
IC50

>  <RELATION>
=

>  <STANDARD_VALUE>
20

>  <STANDARD_UNITS>
nM

>  <COMPOUND_KEY>
25

>  <PUBMED_ID>
20579874

>  <JOURNAL>
Bioorg. Med. Chem. Lett.

>  <YEAR>
2010

>  <VOLUME>
20

>  <FIRST_PAGE>
4639

>  <Company>
GSK

>  <idx>
497

>  <Model>
Valid

>  <target>
7.6989698

>  <des_pred_mlr>
8.0300798

>  <RF_Canvas>
7.7890873

>  <DNN_Canvas>
7.8562489

>  <pred_CoMFA>
7.6971002

>  <pred_COMSIA>
8.2791004

>  <pred_abm5>
7.7479196

>  <pred_ff8>
7.9021487

>  <pred_gau6>
7.98737

>  <CID>
BACE_497

>  <active>
1

>  <des_class_bayes>
1

>  <maacs_class_bayes>
1

>  <radial_class_bayes>
1

>  <dend_class_bayes>
1

>  <molprint_class_bayes>
1

>  <RF_canvas>
1

>  <DNN_canvas>
1

$$$$
CHEMBL568115
  MOE2015           3D

 47 50  0  0  1  0  0  0  0  0999 V2000
   22.5320   11.8370   25.1070 C   0  0  0  0  0  0  0  0  0  0  0  0
   22.3190   11.0770   23.9010 N   0  0  0  0  0  0  0  0  0  0  0  0
   22.4540    9.7470   23.7400 C   0  0  0  0  0  0  0  0  0  0  0  0
   22.2310    9.2920   22.5500 N   0  0  0  0  0  0  0  0  0  0  0  0
   21.8720   10.4730   21.6960 C   0  0  2  0  0  0  0  0  0  0  0  0
   21.9440   11.6240   22.7120 C   0  0  0  0  0  0  0  0  0  0  0  0
   21.7570   12.8110   22.4810 O   0  0  0  0  0  0  0  0  0  0  0  0
   20.4650   10.2440   21.1150 C   0  0  0  0  0  0  0  0  0  0  0  0
   20.1450    8.9990   20.5570 C   0  0  0  0  0  0  0  0  0  0  0  0
   18.9050    8.7560   19.9650 C   0  0  0  0  0  0  0  0  0  0  0  0
   17.9460    9.7580   19.9210 C   0  0  0  0  0  0  0  0  0  0  0  0
   16.7110    9.6610   19.3510 O   0  0  0  0  0  0  0  0  0  0  0  0
   16.1490    8.3680   19.2370 C   0  0  0  0  0  0  0  0  0  0  0  0
   16.6700    7.7140   18.1810 F   0  0  0  0  0  0  0  0  0  0  0  0
   16.3360    7.6400   20.3530 F   0  0  0  0  0  0  0  0  0  0  0  0
   14.8200    8.4860   19.0410 F   0  0  0  0  0  0  0  0  0  0  0  0
   18.2560   11.0030   20.4570 C   0  0  0  0  0  0  0  0  0  0  0  0
   19.4930   11.2440   21.0510 C   0  0  0  0  0  0  0  0  0  0  0  0
   22.9450   10.7180   20.6130 C   0  0  0  0  0  0  0  0  0  0  0  0
   22.6340   11.2850   19.3750 C   0  0  0  0  0  0  0  0  0  0  0  0
   23.6290   11.5430   18.4440 C   0  0  0  0  0  0  0  0  0  0  0  0
   24.9520   11.2680   18.7480 C   0  0  0  0  0  0  0  0  0  0  0  0
   25.8730   11.5610   17.8280 F   0  0  0  0  0  0  0  0  0  0  0  0
   25.3310   10.7340   19.9760 C   0  0  0  0  0  0  0  0  0  0  0  0
   24.3010   10.4540   20.8860 C   0  0  0  0  0  0  0  0  0  0  0  0
   26.7360   10.5070   20.3320 C   0  0  0  0  0  0  0  0  0  0  0  0
   27.6680    9.9280   19.4930 C   0  0  0  0  0  0  0  0  0  0  0  0
   28.9640    9.7050   19.8120 N   0  0  0  0  0  0  0  0  0  0  0  0
   29.3330   10.0980   21.0400 C   0  0  0  0  0  0  0  0  0  0  0  0
   28.5440   10.6770   21.9520 N   0  0  0  0  0  0  0  0  0  0  0  0
   27.2640   10.8650   21.5630 C   0  0  0  0  0  0  0  0  0  0  0  0
   22.8120    8.9360   24.7580 N   0  0  0  0  0  0  0  0  0  0  0  0
   21.8600   11.4620   25.8840 H   0  0  0  0  0  0  0  0  0  0  0  0
   22.3500   12.9020   24.9440 H   0  0  0  0  0  0  0  0  0  0  0  0
   23.5630   11.6850   25.4420 H   0  0  0  0  0  0  0  0  0  0  0  0
   20.8810    8.1960   20.5710 H   0  0  0  0  0  0  0  0  0  0  0  0
   18.7270    7.7740   19.5360 H   0  0  0  0  0  0  0  0  0  0  0  0
   17.5230   11.8070   20.4130 H   0  0  0  0  0  0  0  0  0  0  0  0
   19.6780   12.2430   21.4370 H   0  0  0  0  0  0  0  0  0  0  0  0
   21.6110   11.5420   19.1100 H   0  0  0  0  0  0  0  0  0  0  0  0
   23.3800   11.9760   17.4800 H   0  0  0  0  0  0  0  0  0  0  0  0
   24.5640   10.0150   21.8480 H   0  0  0  0  0  0  0  0  0  0  0  0
   27.3980    9.5980   18.4920 H   0  0  0  0  0  0  0  0  0  0  0  0
   30.3680    9.9330   21.3170 H   0  0  0  0  0  0  0  0  0  0  0  0
   26.6490   11.3520   22.3170 H   0  0  0  0  0  0  0  0  0  0  0  0
   22.9110    7.9450   24.5780 H   0  0  0  0  0  0  0  0  0  0  0  0
   22.9900    9.2670   25.6950 H   0  0  0  0  0  0  0  0  0  0  0  0
  1  2  1  0  0  0  0
  1 33  1  0  0  0  0
  1 34  1  0  0  0  0
  1 35  1  0  0  0  0
  2  3  1  0  0  0  0
  2  6  1  0  0  0  0
  3  4  2  0  0  0  0
  3 32  1  0  0  0  0
  4  5  1  0  0  0  0
  5  6  1  0  0  0  0
  5  8  1  0  0  0  0
  5 19  1  0  0  0  0
  6  7  2  0  0  0  0
  8  9  1  0  0  0  0
  8 18  2  0  0  0  0
  9 10  2  0  0  0  0
  9 36  1  0  0  0  0
 10 11  1  0  0  0  0
 10 37  1  0  0  0  0
 11 12  1  0  0  0  0
 11 17  2  0  0  0  0
 12 13  1  0  0  0  0
 13 14  1  0  0  0  0
 13 15  1  0  0  0  0
 13 16  1  0  0  0  0
 17 18  1  0  0  0  0
 17 38  1  0  0  0  0
 18 39  1  0  0  0  0
 19 20  1  0  0  0  0
 19 25  2  0  0  0  0
 20 21  2  0  0  0  0
 20 40  1  0  0  0  0
 21 22  1  0  0  0  0
 21 41  1  0  0  0  0
 22 23  1  0  0  0  0
 22 24  2  0  0  0  0
 24 25  1  0  0  0  0
 24 26  1  0  0  0  0
 25 42  1  0  0  0  0
 26 27  2  0  0  0  0
 26 31  1  0  0  0  0
 27 28  1  0  0  0  0
 27 43  1  0  0  0  0
 28 29  2  0  0  0  0
 29 30  1  0  0  0  0
 29 44  1  0  0  0  0
 30 31  2  0  0  0  0
 31 45  1  0  0  0  0
 32 46  1  0  0  0  0
 32 47  1  0  0  0  0
M  END
>  <PARENT_CMPD_ID>
CHEMBL568115

>  <STANDARD_TYPE>
IC50

>  <RELATION>
=

>  <STANDARD_VALUE>
20

>  <STANDARD_UNITS>
nM

>  <COMPOUND_KEY>
4

>  <PUBMED_ID>
20880704

>  <JOURNAL>
Bioorg. Med. Chem. Lett.

>  <YEAR>
2010

>  <VOLUME>
20

>  <FIRST_PAGE>
6597

>  <Company>
Pfizer

>  <idx>
498

>  <Model>
Valid

>  <target>
7.6989698

>  <des_pred_mlr>
6.9923501

>  <RF_Canvas>
7.6335516

>  <DNN_Canvas>
7.4925251

>  <pred_CoMFA>
7.2280002

>  <pred_COMSIA>
6.2996001

>  <pred_abm5>
6.9959669

>  <pred_ff8>
6.1514764

>  <pred_gau6>
7.1631064

>  <CID>
BACE_498

>  <active>
1

>  <des_class_bayes>
1

>  <maacs_class_bayes>
1

>  <radial_class_bayes>
1

>  <dend_class_bayes>
1

>  <molprint_class_bayes>
1

>  <RF_canvas>
1

>  <DNN_canvas>
1

$$$$
CHEMBL1270527
  MOE2015           3D

 50 53  0  0  1  0  0  0  0  0999 V2000
   22.5520   11.8280   25.1340 C   0  0  0  0  0  0  0  0  0  0  0  0
   22.3900   11.0750   23.9170 N   0  0  0  0  0  0  0  0  0  0  0  0
   22.5430    9.7480   23.7490 C   0  0  0  0  0  0  0  0  0  0  0  0
   22.3580    9.3000   22.5500 N   0  0  0  0  0  0  0  0  0  0  0  0
   22.0070   10.4830   21.7000 C   0  0  2  0  0  0  0  0  0  0  0  0
   22.0410   11.6270   22.7230 C   0  0  0  0  0  0  0  0  0  0  0  0
   21.8300   12.8100   22.4960 O   0  0  0  0  0  0  0  0  0  0  0  0
   20.5910   10.2420   21.1230 C   0  0  0  0  0  0  0  0  0  0  0  0
   19.5920   11.2200   21.0880 C   0  0  0  0  0  0  0  0  0  0  0  0
   18.3540   10.9710   20.4960 C   0  0  0  0  0  0  0  0  0  0  0  0
   18.0680    9.7340   19.9320 C   0  0  0  0  0  0  0  0  0  0  0  0
   16.8410    9.6280   19.3420 O   0  0  0  0  0  0  0  0  0  0  0  0
   16.3680    8.3180   19.0900 C   0  0  0  0  0  0  0  0  0  0  0  0
   15.0490    8.4100   18.8020 F   0  0  0  0  0  0  0  0  0  0  0  0
   16.4530    7.5710   20.2130 F   0  0  0  0  0  0  0  0  0  0  0  0
   19.0440    8.7470   19.9660 C   0  0  0  0  0  0  0  0  0  0  0  0
   20.2860    9.0010   20.5510 C   0  0  0  0  0  0  0  0  0  0  0  0
   23.0760   10.7640   20.6110 C   0  0  0  0  0  0  0  0  0  0  0  0
   22.6970   11.4550   19.4520 C   0  0  0  0  0  0  0  0  0  0  0  0
   23.6130   11.7620   18.4610 C   0  0  0  0  0  0  0  0  0  0  0  0
   24.9370   11.3960   18.6100 C   0  0  0  0  0  0  0  0  0  0  0  0
   25.3810   10.7120   19.7490 C   0  0  0  0  0  0  0  0  0  0  0  0
   24.4440   10.4100   20.7500 C   0  0  0  0  0  0  0  0  0  0  0  0
   26.7610   10.2090   19.6440 C   0  0  0  0  0  0  0  0  0  0  0  0
   27.8040   10.0580   20.4710 C   0  0  0  0  0  0  0  0  0  0  0  0
   28.0350   10.3460   21.8770 C   0  0  0  0  0  0  0  0  0  0  0  0
   29.4510   10.6520   22.3030 C   0  0  0  0  0  0  0  0  0  0  0  0
   28.8280    9.3550   22.7000 C   0  0  0  0  0  0  0  0  0  0  0  0
   27.0570    9.8270   18.3730 F   0  0  0  0  0  0  0  0  0  0  0  0
   22.8590    8.9300   24.7740 N   0  0  0  0  0  0  0  0  0  0  0  0
   21.8370   11.4580   25.8750 H   0  0  0  0  0  0  0  0  0  0  0  0
   22.3900   12.8960   24.9670 H   0  0  0  0  0  0  0  0  0  0  0  0
   23.5620   11.6640   25.5210 H   0  0  0  0  0  0  0  0  0  0  0  0
   19.7570   12.2160   21.4940 H   0  0  0  0  0  0  0  0  0  0  0  0
   17.6060   11.7600   20.4720 H   0  0  0  0  0  0  0  0  0  0  0  0
   16.8870    7.8340   18.2550 H   0  0  0  0  0  0  0  0  0  0  0  0
   18.8870    7.7640   19.5310 H   0  0  0  0  0  0  0  0  0  0  0  0
   21.0360    8.2110   20.5480 H   0  0  0  0  0  0  0  0  0  0  0  0
   21.6720   11.7820   19.2990 H   0  0  0  0  0  0  0  0  0  0  0  0
   23.2890   12.2900   17.5680 H   0  0  0  0  0  0  0  0  0  0  0  0
   25.6260   11.6300   17.8000 H   0  0  0  0  0  0  0  0  0  0  0  0
   24.7670    9.8470   21.6240 H   0  0  0  0  0  0  0  0  0  0  0  0
   28.6760    9.6350   19.9660 H   0  0  0  0  0  0  0  0  0  0  0  0
   27.2430   10.8890   22.3840 H   0  0  0  0  0  0  0  0  0  0  0  0
   30.2480   10.6290   21.5680 H   0  0  0  0  0  0  0  0  0  0  0  0
   29.5940   11.4030   23.0720 H   0  0  0  0  0  0  0  0  0  0  0  0
   28.5460    9.2230   23.7380 H   0  0  0  0  0  0  0  0  0  0  0  0
   29.1890    8.4490   22.2270 H   0  0  0  0  0  0  0  0  0  0  0  0
   22.9760    7.9420   24.5890 H   0  0  0  0  0  0  0  0  0  0  0  0
   22.9840    9.2520   25.7220 H   0  0  0  0  0  0  0  0  0  0  0  0
  1  2  1  0  0  0  0
  1 31  1  0  0  0  0
  1 32  1  0  0  0  0
  1 33  1  0  0  0  0
  2  3  1  0  0  0  0
  2  6  1  0  0  0  0
  3  4  2  0  0  0  0
  3 30  1  0  0  0  0
  4  5  1  0  0  0  0
  5  6  1  0  0  0  0
  5  8  1  0  0  0  0
  5 18  1  0  0  0  0
  6  7  2  0  0  0  0
  8  9  1  0  0  0  0
  8 17  2  0  0  0  0
  9 10  2  0  0  0  0
  9 34  1  0  0  0  0
 10 11  1  0  0  0  0
 10 35  1  0  0  0  0
 11 12  1  0  0  0  0
 11 16  2  0  0  0  0
 12 13  1  0  0  0  0
 13 14  1  0  0  0  0
 13 15  1  0  0  0  0
 13 36  1  0  0  0  0
 16 17  1  0  0  0  0
 16 37  1  0  0  0  0
 17 38  1  0  0  0  0
 18 19  1  0  0  0  0
 18 23  2  0  0  0  0
 19 20  2  0  0  0  0
 19 39  1  0  0  0  0
 20 21  1  0  0  0  0
 20 40  1  0  0  0  0
 21 22  2  0  0  0  0
 21 41  1  0  0  0  0
 22 23  1  0  0  0  0
 22 24  1  0  0  0  0
 23 42  1  0  0  0  0
 24 25  2  0  0  0  0
 24 29  1  0  0  0  0
 25 26  1  0  0  0  0
 25 43  1  0  0  0  0
 26 27  1  0  0  0  0
 26 28  1  0  0  0  0
 26 44  1  0  0  0  0
 27 28  1  0  0  0  0
 27 45  1  0  0  0  0
 27 46  1  0  0  0  0
 28 47  1  0  0  0  0
 28 48  1  0  0  0  0
 30 49  1  0  0  0  0
 30 50  1  0  0  0  0
M  END
>  <PARENT_CMPD_ID>
CHEMBL1270527

>  <STANDARD_TYPE>
IC50

>  <RELATION>
=

>  <STANDARD_VALUE>
20

>  <STANDARD_UNITS>
nM

>  <COMPOUND_KEY>
50

>  <PUBMED_ID>
20880704

>  <JOURNAL>
Bioorg. Med. Chem. Lett.

>  <YEAR>
2010

>  <VOLUME>
20

>  <FIRST_PAGE>
6597

>  <Company>
Pfizer

>  <idx>
499

>  <Model>
Valid

>  <target>
7.6989698

>  <des_pred_mlr>
6.5591002

>  <RF_Canvas>
7.4133096

>  <DNN_Canvas>
6.6833696

>  <pred_CoMFA>
7.5226998

>  <pred_COMSIA>
6.6216998

>  <pred_abm5>
7.2450914

>  <pred_ff8>
5.618082

>  <pred_gau6>
7.1383924

>  <CID>
BACE_499

>  <active>
1

>  <des_class_bayes>
1

>  <maacs_class_bayes>
1

>  <radial_class_bayes>
1

>  <dend_class_bayes>
1

>  <molprint_class_bayes>
1

>  <RF_canvas>
1

>  <DNN_canvas>
1

$$$$
CHEMBL1270628
  MOE2015           3D

 50 52  0  0  1  0  0  0  0  0999 V2000
   30.8030   10.6580   22.1960 C   0  0  0  0  0  0  0  0  0  0  0  0
   29.4550   10.9840   21.9060 O   0  0  0  0  0  0  0  0  0  0  0  0
   28.8480    9.9930   21.0840 C   0  0  0  0  0  0  0  0  0  0  0  0
   27.3980   10.3250   20.9940 C   0  0  0  0  0  0  0  0  0  0  0  0
   26.7060   10.3980   19.8520 C   0  0  0  0  0  0  0  0  0  0  0  0
   25.2840   10.7430   19.7410 C   0  0  0  0  0  0  0  0  0  0  0  0
   24.8680   11.3460   18.5580 C   0  0  0  0  0  0  0  0  0  0  0  0
   23.5360   11.6720   18.3760 C   0  0  0  0  0  0  0  0  0  0  0  0
   22.6020   11.3940   19.3670 C   0  0  0  0  0  0  0  0  0  0  0  0
   22.9670   10.7580   20.5590 C   0  0  0  0  0  0  0  0  0  0  0  0
   24.3280   10.4450   20.7250 C   0  0  0  0  0  0  0  0  0  0  0  0
   21.9250   10.4920   21.6720 C   0  0  1  0  0  0  0  0  0  0  0  0
   22.2960    9.3110   22.5240 N   0  0  0  0  0  0  0  0  0  0  0  0
   22.5060    9.7620   23.7180 C   0  0  0  0  0  0  0  0  0  0  0  0
   22.8460    8.9480   24.7410 N   0  0  0  0  0  0  0  0  0  0  0  0
   22.3620   11.0900   23.8830 N   0  0  0  0  0  0  0  0  0  0  0  0
   22.5540   11.8470   25.0950 C   0  0  0  0  0  0  0  0  0  0  0  0
   21.9910   11.6390   22.6920 C   0  0  0  0  0  0  0  0  0  0  0  0
   21.7870   12.8240   22.4690 O   0  0  0  0  0  0  0  0  0  0  0  0
   20.5070   10.2470   21.1150 C   0  0  0  0  0  0  0  0  0  0  0  0
   19.5130   11.2280   21.0870 C   0  0  0  0  0  0  0  0  0  0  0  0
   18.2720   10.9760   20.5050 C   0  0  0  0  0  0  0  0  0  0  0  0
   17.9800    9.7360   19.9490 C   0  0  0  0  0  0  0  0  0  0  0  0
   16.7420    9.6190   19.3880 O   0  0  0  0  0  0  0  0  0  0  0  0
   16.2040    8.3110   19.3550 C   0  0  0  0  0  0  0  0  0  0  0  0
   16.6410    7.6850   18.2380 F   0  0  0  0  0  0  0  0  0  0  0  0
   14.8610    8.4270   19.2250 F   0  0  0  0  0  0  0  0  0  0  0  0
   18.9590    8.7510   19.9590 C   0  0  0  0  0  0  0  0  0  0  0  0
   20.2030    9.0070   20.5370 C   0  0  0  0  0  0  0  0  0  0  0  0
   31.2270   11.4570   22.8110 H   0  0  0  0  0  0  0  0  0  0  0  0
   31.3880   10.5800   21.2750 H   0  0  0  0  0  0  0  0  0  0  0  0
   30.8600    9.7200   22.7580 H   0  0  0  0  0  0  0  0  0  0  0  0
   29.3300    9.9860   20.1000 H   0  0  0  0  0  0  0  0  0  0  0  0
   28.9590    9.0060   21.5470 H   0  0  0  0  0  0  0  0  0  0  0  0
   26.9130   10.5300   21.9450 H   0  0  0  0  0  0  0  0  0  0  0  0
   27.2190   10.2110   18.9110 H   0  0  0  0  0  0  0  0  0  0  0  0
   25.5780   11.5790   17.7670 H   0  0  0  0  0  0  0  0  0  0  0  0
   23.2170   12.1570   17.4560 H   0  0  0  0  0  0  0  0  0  0  0  0
   21.5730   11.6960   19.1830 H   0  0  0  0  0  0  0  0  0  0  0  0
   24.6470    9.9460   21.6380 H   0  0  0  0  0  0  0  0  0  0  0  0
   22.9380    7.9570   24.5570 H   0  0  0  0  0  0  0  0  0  0  0  0
   23.0120    9.2740   25.6820 H   0  0  0  0  0  0  0  0  0  0  0  0
   23.5760   11.6880   25.4520 H   0  0  0  0  0  0  0  0  0  0  0  0
   21.8630   11.4740   25.8560 H   0  0  0  0  0  0  0  0  0  0  0  0
   22.3820   12.9130   24.9300 H   0  0  0  0  0  0  0  0  0  0  0  0
   19.6830   12.2230   21.4900 H   0  0  0  0  0  0  0  0  0  0  0  0
   17.5230   11.7650   20.4850 H   0  0  0  0  0  0  0  0  0  0  0  0
   16.4190    7.7120   20.2480 H   0  0  0  0  0  0  0  0  0  0  0  0
   18.8000    7.7820   19.4950 H   0  0  0  0  0  0  0  0  0  0  0  0
   20.9610    8.2240   20.5170 H   0  0  0  0  0  0  0  0  0  0  0  0
  1  2  1  0  0  0  0
  1 30  1  0  0  0  0
  1 31  1  0  0  0  0
  1 32  1  0  0  0  0
  2  3  1  0  0  0  0
  3  4  1  0  0  0  0
  3 33  1  0  0  0  0
  3 34  1  0  0  0  0
  4  5  2  0  0  0  0
  4 35  1  0  0  0  0
  5  6  1  0  0  0  0
  5 36  1  0  0  0  0
  6  7  1  0  0  0  0
  6 11  2  0  0  0  0
  7  8  2  0  0  0  0
  7 37  1  0  0  0  0
  8  9  1  0  0  0  0
  8 38  1  0  0  0  0
  9 10  2  0  0  0  0
  9 39  1  0  0  0  0
 10 11  1  0  0  0  0
 10 12  1  0  0  0  0
 11 40  1  0  0  0  0
 12 13  1  0  0  0  0
 12 18  1  0  0  0  0
 12 20  1  0  0  0  0
 13 14  2  0  0  0  0
 14 15  1  0  0  0  0
 14 16  1  0  0  0  0
 15 41  1  0  0  0  0
 15 42  1  0  0  0  0
 16 17  1  0  0  0  0
 16 18  1  0  0  0  0
 17 43  1  0  0  0  0
 17 44  1  0  0  0  0
 17 45  1  0  0  0  0
 18 19  2  0  0  0  0
 20 21  1  0  0  0  0
 20 29  2  0  0  0  0
 21 22  2  0  0  0  0
 21 46  1  0  0  0  0
 22 23  1  0  0  0  0
 22 47  1  0  0  0  0
 23 24  1  0  0  0  0
 23 28  2  0  0  0  0
 24 25  1  0  0  0  0
 25 26  1  0  0  0  0
 25 27  1  0  0  0  0
 25 48  1  0  0  0  0
 28 29  1  0  0  0  0
 28 49  1  0  0  0  0
 29 50  1  0  0  0  0
M  END
>  <PARENT_CMPD_ID>
CHEMBL1270628

>  <STANDARD_TYPE>
IC50

>  <RELATION>
=

>  <STANDARD_VALUE>
20

>  <STANDARD_UNITS>
nM

>  <COMPOUND_KEY>
52

>  <PUBMED_ID>
20880704

>  <JOURNAL>
Bioorg. Med. Chem. Lett.

>  <YEAR>
2010

>  <VOLUME>
20

>  <FIRST_PAGE>
6597

>  <Company>
Pfizer

>  <idx>
500

>  <Model>
Valid

>  <target>
7.6989698

>  <des_pred_mlr>
6.09021

>  <RF_Canvas>
6.8365974

>  <DNN_Canvas>
6.5236759

>  <pred_CoMFA>
7.5984001

>  <pred_COMSIA>
6.7893

>  <pred_abm5>
7.1449709

>  <pred_ff8>
6.8932905

>  <pred_gau6>
6.9248147

>  <CID>
BACE_500

>  <active>
1

>  <des_class_bayes>
0

>  <maacs_class_bayes>
1

>  <radial_class_bayes>
1

>  <dend_class_bayes>
1

>  <molprint_class_bayes>
1

>  <RF_canvas>
1

>  <DNN_canvas>
1

$$$$
CHEMBL1270629
  MOE2015           3D

 53 55  0  0  1  0  0  0  0  0999 V2000
   28.9040    9.2930   24.1640 C   0  0  0  0  0  0  0  0  0  0  0  0
   28.8060   10.1100   23.0100 O   0  0  0  0  0  0  0  0  0  0  0  0
   29.3150    9.4390   21.8610 C   0  0  0  0  0  0  0  0  0  0  0  0
   29.2340   10.3600   20.6480 C   0  0  0  0  0  0  0  0  0  0  0  0
   27.8760   10.7140   20.1010 C   0  0  0  0  0  0  0  0  0  0  0  0
   26.7040   10.1970   20.4810 C   0  0  0  0  0  0  0  0  0  0  0  0
   25.3740   10.6220   20.0320 C   0  0  0  0  0  0  0  0  0  0  0  0
   25.0960   11.1980   18.8000 C   0  0  0  0  0  0  0  0  0  0  0  0
   23.7860   11.5480   18.4830 C   0  0  0  0  0  0  0  0  0  0  0  0
   22.7440   11.3210   19.3840 C   0  0  0  0  0  0  0  0  0  0  0  0
   22.9850   10.7190   20.6200 C   0  0  0  0  0  0  0  0  0  0  0  0
   24.3150   10.3860   20.9150 C   0  0  0  0  0  0  0  0  0  0  0  0
   21.8920   10.4900   21.6850 C   0  0  1  0  0  0  0  0  0  0  0  0
   22.2270    9.3060   22.5540 N   0  0  0  0  0  0  0  0  0  0  0  0
   22.4520    9.7640   23.7420 C   0  0  0  0  0  0  0  0  0  0  0  0
   22.8030    8.9530   24.7640 N   0  0  0  0  0  0  0  0  0  0  0  0
   22.3270   11.0950   23.8960 N   0  0  0  0  0  0  0  0  0  0  0  0
   22.5400   11.8580   25.1000 C   0  0  0  0  0  0  0  0  0  0  0  0
   21.9580   11.6410   22.7020 C   0  0  0  0  0  0  0  0  0  0  0  0
   21.7660   12.8270   22.4730 O   0  0  0  0  0  0  0  0  0  0  0  0
   20.4930   10.2610   21.0910 C   0  0  0  0  0  0  0  0  0  0  0  0
   19.5090   11.2500   21.0390 C   0  0  0  0  0  0  0  0  0  0  0  0
   18.2660   10.9950   20.4630 C   0  0  0  0  0  0  0  0  0  0  0  0
   17.9660    9.7470   19.9300 C   0  0  0  0  0  0  0  0  0  0  0  0
   16.7240    9.6270   19.3770 O   0  0  0  0  0  0  0  0  0  0  0  0
   16.1860    8.3180   19.3560 C   0  0  0  0  0  0  0  0  0  0  0  0
   16.6230    7.6830   18.2440 F   0  0  0  0  0  0  0  0  0  0  0  0
   14.8420    8.4340   19.2250 F   0  0  0  0  0  0  0  0  0  0  0  0
   18.9390    8.7580   19.9520 C   0  0  0  0  0  0  0  0  0  0  0  0
   20.1830    9.0150   20.5280 C   0  0  0  0  0  0  0  0  0  0  0  0
   28.5010    9.8480   25.0150 H   0  0  0  0  0  0  0  0  0  0  0  0
   29.9490    9.0450   24.3740 H   0  0  0  0  0  0  0  0  0  0  0  0
   28.3180    8.3770   24.0380 H   0  0  0  0  0  0  0  0  0  0  0  0
   30.3670    9.1850   22.0380 H   0  0  0  0  0  0  0  0  0  0  0  0
   28.7650    8.5060   21.6890 H   0  0  0  0  0  0  0  0  0  0  0  0
   29.7300   11.3050   20.9040 H   0  0  0  0  0  0  0  0  0  0  0  0
   29.8080    9.9090   19.8290 H   0  0  0  0  0  0  0  0  0  0  0  0
   27.8920   11.5080   19.3570 H   0  0  0  0  0  0  0  0  0  0  0  0
   26.6960    9.4230   21.2450 H   0  0  0  0  0  0  0  0  0  0  0  0
   25.8820   11.3780   18.0730 H   0  0  0  0  0  0  0  0  0  0  0  0
   23.5730   12.0100   17.5210 H   0  0  0  0  0  0  0  0  0  0  0  0
   21.7410   11.6310   19.0980 H   0  0  0  0  0  0  0  0  0  0  0  0
   24.5430    9.9340   21.8790 H   0  0  0  0  0  0  0  0  0  0  0  0
   22.8850    7.9600   24.5830 H   0  0  0  0  0  0  0  0  0  0  0  0
   22.9880    9.2840   25.6990 H   0  0  0  0  0  0  0  0  0  0  0  0
   23.5670   11.6980   25.4420 H   0  0  0  0  0  0  0  0  0  0  0  0
   21.8600   11.4930   25.8750 H   0  0  0  0  0  0  0  0  0  0  0  0
   22.3700   12.9240   24.9320 H   0  0  0  0  0  0  0  0  0  0  0  0
   19.6870   12.2490   21.4290 H   0  0  0  0  0  0  0  0  0  0  0  0
   17.5210   11.7880   20.4310 H   0  0  0  0  0  0  0  0  0  0  0  0
   16.3990    7.7270   20.2540 H   0  0  0  0  0  0  0  0  0  0  0  0
   18.7740    7.7820   19.5050 H   0  0  0  0  0  0  0  0  0  0  0  0
   20.9310    8.2230   20.5280 H   0  0  0  0  0  0  0  0  0  0  0  0
  1  2  1  0  0  0  0
  1 31  1  0  0  0  0
  1 32  1  0  0  0  0
  1 33  1  0  0  0  0
  2  3  1  0  0  0  0
  3  4  1  0  0  0  0
  3 34  1  0  0  0  0
  3 35  1  0  0  0  0
  4  5  1  0  0  0  0
  4 36  1  0  0  0  0
  4 37  1  0  0  0  0
  5  6  2  0  0  0  0
  5 38  1  0  0  0  0
  6  7  1  0  0  0  0
  6 39  1  0  0  0  0
  7  8  1  0  0  0  0
  7 12  2  0  0  0  0
  8  9  2  0  0  0  0
  8 40  1  0  0  0  0
  9 10  1  0  0  0  0
  9 41  1  0  0  0  0
 10 11  2  0  0  0  0
 10 42  1  0  0  0  0
 11 12  1  0  0  0  0
 11 13  1  0  0  0  0
 12 43  1  0  0  0  0
 13 14  1  0  0  0  0
 13 19  1  0  0  0  0
 13 21  1  0  0  0  0
 14 15  2  0  0  0  0
 15 16  1  0  0  0  0
 15 17  1  0  0  0  0
 16 44  1  0  0  0  0
 16 45  1  0  0  0  0
 17 18  1  0  0  0  0
 17 19  1  0  0  0  0
 18 46  1  0  0  0  0
 18 47  1  0  0  0  0
 18 48  1  0  0  0  0
 19 20  2  0  0  0  0
 21 22  1  0  0  0  0
 21 30  2  0  0  0  0
 22 23  2  0  0  0  0
 22 49  1  0  0  0  0
 23 24  1  0  0  0  0
 23 50  1  0  0  0  0
 24 25  1  0  0  0  0
 24 29  2  0  0  0  0
 25 26  1  0  0  0  0
 26 27  1  0  0  0  0
 26 28  1  0  0  0  0
 26 51  1  0  0  0  0
 29 30  1  0  0  0  0
 29 52  1  0  0  0  0
 30 53  1  0  0  0  0
M  END
>  <PARENT_CMPD_ID>
CHEMBL1270629

>  <STANDARD_TYPE>
IC50

>  <RELATION>
=

>  <STANDARD_VALUE>
20

>  <STANDARD_UNITS>
nM

>  <COMPOUND_KEY>
53

>  <PUBMED_ID>
20880704

>  <JOURNAL>
Bioorg. Med. Chem. Lett.

>  <YEAR>
2010

>  <VOLUME>
20

>  <FIRST_PAGE>
6597

>  <Company>
Pfizer

>  <idx>
501

>  <Model>
Valid

>  <target>
7.6989698

>  <des_pred_mlr>
6.1727099

>  <RF_Canvas>
7.0017338

>  <DNN_Canvas>
6.6254892

>  <pred_CoMFA>
7.5212002

>  <pred_COMSIA>
7.0592999

>  <pred_abm5>
7.5445714

>  <pred_ff8>
6.0796361

>  <pred_gau6>
7.2377849

>  <CID>
BACE_501

>  <active>
1

>  <des_class_bayes>
1

>  <maacs_class_bayes>
1

>  <radial_class_bayes>
1

>  <dend_class_bayes>
1

>  <molprint_class_bayes>
1

>  <RF_canvas>
1

>  <DNN_canvas>
1

$$$$
CHEMBL1270934
  MOE2015           3D

 44 46  0  0  1  0  0  0  0  0999 V2000
   29.2050   10.1150   21.0760 C   0  0  0  0  0  0  0  0  0  0  0  0
   27.8440   10.3010   20.5810 C   0  0  0  0  0  0  0  0  0  0  0  0
   26.7090   10.4800   20.2360 C   0  0  0  0  0  0  0  0  0  0  0  0
   25.3420   10.7320   19.9060 C   0  0  0  0  0  0  0  0  0  0  0  0
   25.0080   11.2860   18.6810 C   0  0  0  0  0  0  0  0  0  0  0  0
   23.6790   11.5720   18.4080 C   0  0  0  0  0  0  0  0  0  0  0  0
   22.6850   11.3100   19.3520 C   0  0  0  0  0  0  0  0  0  0  0  0
   22.9910   10.7300   20.5890 C   0  0  0  0  0  0  0  0  0  0  0  0
   24.3440   10.4530   20.8440 C   0  0  0  0  0  0  0  0  0  0  0  0
   21.9190   10.4860   21.6750 C   0  0  1  0  0  0  0  0  0  0  0  0
   22.2700    9.3050   22.5360 N   0  0  0  0  0  0  0  0  0  0  0  0
   22.4860    9.7600   23.7280 C   0  0  0  0  0  0  0  0  0  0  0  0
   22.8310    8.9480   24.7510 N   0  0  0  0  0  0  0  0  0  0  0  0
   22.3510   11.0900   23.8870 N   0  0  0  0  0  0  0  0  0  0  0  0
   22.5520   11.8500   25.0940 C   0  0  0  0  0  0  0  0  0  0  0  0
   21.9820   11.6360   22.6940 C   0  0  0  0  0  0  0  0  0  0  0  0
   21.7820   12.8210   22.4670 O   0  0  0  0  0  0  0  0  0  0  0  0
   20.5090   10.2510   21.1000 C   0  0  0  0  0  0  0  0  0  0  0  0
   19.5230   11.2390   21.0540 C   0  0  0  0  0  0  0  0  0  0  0  0
   18.2790   10.9860   20.4780 C   0  0  0  0  0  0  0  0  0  0  0  0
   17.9780    9.7410   19.9400 C   0  0  0  0  0  0  0  0  0  0  0  0
   16.7380    9.6230   19.3850 O   0  0  0  0  0  0  0  0  0  0  0  0
   16.1970    8.3160   19.3570 C   0  0  0  0  0  0  0  0  0  0  0  0
   16.6340    7.6840   18.2440 F   0  0  0  0  0  0  0  0  0  0  0  0
   14.8540    8.4340   19.2250 F   0  0  0  0  0  0  0  0  0  0  0  0
   18.9510    8.7510   19.9610 C   0  0  0  0  0  0  0  0  0  0  0  0
   20.1970    9.0060   20.5370 C   0  0  0  0  0  0  0  0  0  0  0  0
   29.6150   11.0570   21.4540 H   0  0  0  0  0  0  0  0  0  0  0  0
   29.8630    9.7540   20.2800 H   0  0  0  0  0  0  0  0  0  0  0  0
   29.2270    9.3850   21.8910 H   0  0  0  0  0  0  0  0  0  0  0  0
   25.7730   11.5100   17.9420 H   0  0  0  0  0  0  0  0  0  0  0  0
   23.4090   12.0200   17.4540 H   0  0  0  0  0  0  0  0  0  0  0  0
   21.6630   11.5800   19.0970 H   0  0  0  0  0  0  0  0  0  0  0  0
   24.6380   10.0220   21.8000 H   0  0  0  0  0  0  0  0  0  0  0  0
   22.9210    7.9560   24.5690 H   0  0  0  0  0  0  0  0  0  0  0  0
   23.0060    9.2770   25.6890 H   0  0  0  0  0  0  0  0  0  0  0  0
   23.5760   11.6910   25.4450 H   0  0  0  0  0  0  0  0  0  0  0  0
   21.8660   11.4810   25.8620 H   0  0  0  0  0  0  0  0  0  0  0  0
   22.3800   12.9160   24.9280 H   0  0  0  0  0  0  0  0  0  0  0  0
   19.7000   12.2380   21.4440 H   0  0  0  0  0  0  0  0  0  0  0  0
   17.5350   11.7800   20.4490 H   0  0  0  0  0  0  0  0  0  0  0  0
   16.4090    7.7210   20.2540 H   0  0  0  0  0  0  0  0  0  0  0  0
   18.7860    7.7760   19.5110 H   0  0  0  0  0  0  0  0  0  0  0  0
   20.9460    8.2140   20.5310 H   0  0  0  0  0  0  0  0  0  0  0  0
  1  2  1  0  0  0  0
  1 28  1  0  0  0  0
  1 29  1  0  0  0  0
  1 30  1  0  0  0  0
  2  3  3  0  0  0  0
  3  4  1  0  0  0  0
  4  5  1  0  0  0  0
  4  9  2  0  0  0  0
  5  6  2  0  0  0  0
  5 31  1  0  0  0  0
  6  7  1  0  0  0  0
  6 32  1  0  0  0  0
  7  8  2  0  0  0  0
  7 33  1  0  0  0  0
  8  9  1  0  0  0  0
  8 10  1  0  0  0  0
  9 34  1  0  0  0  0
 10 11  1  0  0  0  0
 10 16  1  0  0  0  0
 10 18  1  0  0  0  0
 11 12  2  0  0  0  0
 12 13  1  0  0  0  0
 12 14  1  0  0  0  0
 13 35  1  0  0  0  0
 13 36  1  0  0  0  0
 14 15  1  0  0  0  0
 14 16  1  0  0  0  0
 15 37  1  0  0  0  0
 15 38  1  0  0  0  0
 15 39  1  0  0  0  0
 16 17  2  0  0  0  0
 18 19  1  0  0  0  0
 18 27  2  0  0  0  0
 19 20  2  0  0  0  0
 19 40  1  0  0  0  0
 20 21  1  0  0  0  0
 20 41  1  0  0  0  0
 21 22  1  0  0  0  0
 21 26  2  0  0  0  0
 22 23  1  0  0  0  0
 23 24  1  0  0  0  0
 23 25  1  0  0  0  0
 23 42  1  0  0  0  0
 26 27  1  0  0  0  0
 26 43  1  0  0  0  0
 27 44  1  0  0  0  0
M  END
>  <PARENT_CMPD_ID>
CHEMBL1270934

>  <STANDARD_TYPE>
IC50

>  <RELATION>
=

>  <STANDARD_VALUE>
20

>  <STANDARD_UNITS>
nM

>  <COMPOUND_KEY>
58

>  <PUBMED_ID>
20880704

>  <JOURNAL>
Bioorg. Med. Chem. Lett.

>  <YEAR>
2010

>  <VOLUME>
20

>  <FIRST_PAGE>
6597

>  <Company>
Pfizer

>  <idx>
502

>  <Model>
Valid

>  <target>
7.6989698

>  <des_pred_mlr>
6.1989899

>  <RF_Canvas>
6.9052486

>  <DNN_Canvas>
6.955646

>  <pred_CoMFA>
7.0297999

>  <pred_COMSIA>
6.1694002

>  <pred_abm5>
7.0044007

>  <pred_ff8>
6.7126851

>  <pred_gau6>
6.9571605

>  <CID>
BACE_502

>  <active>
1

>  <des_class_bayes>
1

>  <maacs_class_bayes>
1

>  <radial_class_bayes>
1

>  <dend_class_bayes>
1

>  <molprint_class_bayes>
1

>  <RF_canvas>
1

>  <DNN_canvas>
1

$$$$
CHEMBL1271245
  MOE2015           3D

 50 52  0  0  1  0  0  0  0  0999 V2000
   30.0600    9.5500   20.3190 C   0  0  0  0  0  0  0  0  0  0  0  0
   29.1520   10.3280   21.2480 C   0  0  0  0  0  0  0  0  0  0  0  0
   29.1270    9.6930   22.6330 C   0  0  0  0  0  0  0  0  0  0  0  0
   27.8020   10.4000   20.6740 C   0  0  0  0  0  0  0  0  0  0  0  0
   26.6790   10.5190   20.2690 C   0  0  0  0  0  0  0  0  0  0  0  0
   25.3170   10.7390   19.9120 C   0  0  0  0  0  0  0  0  0  0  0  0
   24.9870   11.2840   18.6820 C   0  0  0  0  0  0  0  0  0  0  0  0
   23.6580   11.5610   18.4030 C   0  0  0  0  0  0  0  0  0  0  0  0
   22.6630   11.3000   19.3470 C   0  0  0  0  0  0  0  0  0  0  0  0
   22.9680   10.7280   20.5870 C   0  0  0  0  0  0  0  0  0  0  0  0
   24.3190   10.4580   20.8470 C   0  0  0  0  0  0  0  0  0  0  0  0
   21.9000   10.4850   21.6770 C   0  0  1  0  0  0  0  0  0  0  0  0
   22.2560    9.3040   22.5370 N   0  0  0  0  0  0  0  0  0  0  0  0
   22.4760    9.7600   23.7280 C   0  0  0  0  0  0  0  0  0  0  0  0
   22.8260    8.9480   24.7490 N   0  0  0  0  0  0  0  0  0  0  0  0
   22.3410   11.0900   23.8870 N   0  0  0  0  0  0  0  0  0  0  0  0
   22.5470   11.8500   25.0930 C   0  0  0  0  0  0  0  0  0  0  0  0
   21.9690   11.6360   22.6950 C   0  0  0  0  0  0  0  0  0  0  0  0
   21.7710   12.8210   22.4680 O   0  0  0  0  0  0  0  0  0  0  0  0
   20.4920   10.2500   21.1030 C   0  0  0  0  0  0  0  0  0  0  0  0
   20.1810    9.0050   20.5390 C   0  0  0  0  0  0  0  0  0  0  0  0
   18.9380    8.7500   19.9610 C   0  0  0  0  0  0  0  0  0  0  0  0
   17.9660    9.7400   19.9380 C   0  0  0  0  0  0  0  0  0  0  0  0
   16.7260    9.6230   19.3810 O   0  0  0  0  0  0  0  0  0  0  0  0
   16.1860    8.3150   19.3550 C   0  0  0  0  0  0  0  0  0  0  0  0
   16.6250    7.6820   18.2430 F   0  0  0  0  0  0  0  0  0  0  0  0
   14.8430    8.4330   19.2210 F   0  0  0  0  0  0  0  0  0  0  0  0
   18.2640   10.9860   20.4770 C   0  0  0  0  0  0  0  0  0  0  0  0
   19.5070   11.2380   21.0560 C   0  0  0  0  0  0  0  0  0  0  0  0
   31.0820    9.5100   20.7130 H   0  0  0  0  0  0  0  0  0  0  0  0
   30.1060   10.0170   19.3280 H   0  0  0  0  0  0  0  0  0  0  0  0
   29.7130    8.5200   20.1800 H   0  0  0  0  0  0  0  0  0  0  0  0
   29.5460   11.3470   21.3460 H   0  0  0  0  0  0  0  0  0  0  0  0
   28.7400    8.6680   22.5990 H   0  0  0  0  0  0  0  0  0  0  0  0
   28.4850   10.2640   23.3140 H   0  0  0  0  0  0  0  0  0  0  0  0
   30.1320    9.6620   23.0670 H   0  0  0  0  0  0  0  0  0  0  0  0
   25.7550   11.5120   17.9480 H   0  0  0  0  0  0  0  0  0  0  0  0
   23.3880   12.0030   17.4460 H   0  0  0  0  0  0  0  0  0  0  0  0
   21.6400   11.5630   19.0880 H   0  0  0  0  0  0  0  0  0  0  0  0
   24.6140   10.0380   21.8080 H   0  0  0  0  0  0  0  0  0  0  0  0
   22.9160    7.9570   24.5670 H   0  0  0  0  0  0  0  0  0  0  0  0
   23.0040    9.2780   25.6870 H   0  0  0  0  0  0  0  0  0  0  0  0
   23.5730   11.6920   25.4390 H   0  0  0  0  0  0  0  0  0  0  0  0
   21.8650   11.4810   25.8640 H   0  0  0  0  0  0  0  0  0  0  0  0
   22.3730   12.9160   24.9270 H   0  0  0  0  0  0  0  0  0  0  0  0
   20.9310    8.2130   20.5340 H   0  0  0  0  0  0  0  0  0  0  0  0
   18.7740    7.7750   19.5100 H   0  0  0  0  0  0  0  0  0  0  0  0
   16.3970    7.7220   20.2520 H   0  0  0  0  0  0  0  0  0  0  0  0
   17.5200   11.7790   20.4460 H   0  0  0  0  0  0  0  0  0  0  0  0
   19.6840   12.2380   21.4460 H   0  0  0  0  0  0  0  0  0  0  0  0
  1  2  1  0  0  0  0
  1 30  1  0  0  0  0
  1 31  1  0  0  0  0
  1 32  1  0  0  0  0
  2  3  1  0  0  0  0
  2  4  1  0  0  0  0
  2 33  1  0  0  0  0
  3 34  1  0  0  0  0
  3 35  1  0  0  0  0
  3 36  1  0  0  0  0
  4  5  3  0  0  0  0
  5  6  1  0  0  0  0
  6  7  1  0  0  0  0
  6 11  2  0  0  0  0
  7  8  2  0  0  0  0
  7 37  1  0  0  0  0
  8  9  1  0  0  0  0
  8 38  1  0  0  0  0
  9 10  2  0  0  0  0
  9 39  1  0  0  0  0
 10 11  1  0  0  0  0
 10 12  1  0  0  0  0
 11 40  1  0  0  0  0
 12 13  1  0  0  0  0
 12 18  1  0  0  0  0
 12 20  1  0  0  0  0
 13 14  2  0  0  0  0
 14 15  1  0  0  0  0
 14 16  1  0  0  0  0
 15 41  1  0  0  0  0
 15 42  1  0  0  0  0
 16 17  1  0  0  0  0
 16 18  1  0  0  0  0
 17 43  1  0  0  0  0
 17 44  1  0  0  0  0
 17 45  1  0  0  0  0
 18 19  2  0  0  0  0
 20 21  1  0  0  0  0
 20 29  2  0  0  0  0
 21 22  2  0  0  0  0
 21 46  1  0  0  0  0
 22 23  1  0  0  0  0
 22 47  1  0  0  0  0
 23 24  1  0  0  0  0
 23 28  2  0  0  0  0
 24 25  1  0  0  0  0
 25 26  1  0  0  0  0
 25 27  1  0  0  0  0
 25 48  1  0  0  0  0
 28 29  1  0  0  0  0
 28 49  1  0  0  0  0
 29 50  1  0  0  0  0
M  END
>  <PARENT_CMPD_ID>
CHEMBL1271245

>  <STANDARD_TYPE>
IC50

>  <RELATION>
=

>  <STANDARD_VALUE>
20

>  <STANDARD_UNITS>
nM

>  <COMPOUND_KEY>
64

>  <PUBMED_ID>
20880704

>  <JOURNAL>
Bioorg. Med. Chem. Lett.

>  <YEAR>
2010

>  <VOLUME>
20

>  <FIRST_PAGE>
6597

>  <Company>
Pfizer

>  <idx>
503

>  <Model>
Valid

>  <target>
7.6989698

>  <des_pred_mlr>
6.3063402

>  <RF_Canvas>
7.0502553

>  <DNN_Canvas>
7.2121997

>  <pred_CoMFA>
7.4096999

>  <pred_COMSIA>
6.8776002

>  <pred_abm5>
7.380414

>  <pred_ff8>
6.5946975

>  <pred_gau6>
7.3579822

>  <CID>
BACE_503

>  <active>
1

>  <des_class_bayes>
1

>  <maacs_class_bayes>
1

>  <radial_class_bayes>
1

>  <dend_class_bayes>
1

>  <molprint_class_bayes>
1

>  <RF_canvas>
1

>  <DNN_canvas>
1

$$$$
CHEMBL1271246
  MOE2015           3D

 48 51  0  0  1  0  0  0  0  0999 V2000
   22.5410   11.8500   25.0970 C   0  0  0  0  0  0  0  0  0  0  0  0
   22.3430   11.0910   23.8880 N   0  0  0  0  0  0  0  0  0  0  0  0
   22.4820    9.7620   23.7270 C   0  0  0  0  0  0  0  0  0  0  0  0
   22.2660    9.3080   22.5350 N   0  0  0  0  0  0  0  0  0  0  0  0
   21.9090   10.4890   21.6760 C   0  0  2  0  0  0  0  0  0  0  0  0
   21.9750   11.6390   22.6950 C   0  0  0  0  0  0  0  0  0  0  0  0
   21.7790   12.8240   22.4680 O   0  0  0  0  0  0  0  0  0  0  0  0
   20.4990   10.2520   21.1040 C   0  0  0  0  0  0  0  0  0  0  0  0
   19.5120   11.2390   21.0590 C   0  0  0  0  0  0  0  0  0  0  0  0
   18.2690   10.9860   20.4810 C   0  0  0  0  0  0  0  0  0  0  0  0
   17.9720    9.7400   19.9410 C   0  0  0  0  0  0  0  0  0  0  0  0
   16.7320    9.6230   19.3830 O   0  0  0  0  0  0  0  0  0  0  0  0
   16.1930    8.3150   19.3560 C   0  0  0  0  0  0  0  0  0  0  0  0
   16.6310    7.6830   18.2420 F   0  0  0  0  0  0  0  0  0  0  0  0
   14.8500    8.4320   19.2230 F   0  0  0  0  0  0  0  0  0  0  0  0
   18.9450    8.7520   19.9610 C   0  0  0  0  0  0  0  0  0  0  0  0
   20.1890    9.0070   20.5380 C   0  0  0  0  0  0  0  0  0  0  0  0
   22.9750   10.7380   20.5850 C   0  0  0  0  0  0  0  0  0  0  0  0
   22.6620   11.3240   19.3530 C   0  0  0  0  0  0  0  0  0  0  0  0
   23.6490   11.5900   18.4020 C   0  0  0  0  0  0  0  0  0  0  0  0
   24.9790   11.2990   18.6640 C   0  0  0  0  0  0  0  0  0  0  0  0
   25.3190   10.7390   19.8850 C   0  0  0  0  0  0  0  0  0  0  0  0
   24.3280   10.4580   20.8300 C   0  0  0  0  0  0  0  0  0  0  0  0
   26.6840   10.4670   20.1970 C   0  0  0  0  0  0  0  0  0  0  0  0
   27.8140   10.2400   20.5270 C   0  0  0  0  0  0  0  0  0  0  0  0
   29.1040    9.9490   21.0730 C   0  0  0  0  0  0  0  0  0  0  0  0
   29.1770    9.3300   22.4480 C   0  0  0  0  0  0  0  0  0  0  0  0
   29.5950   10.7490   22.2430 C   0  0  0  0  0  0  0  0  0  0  0  0
   22.8270    8.9500   24.7490 N   0  0  0  0  0  0  0  0  0  0  0  0
   21.8560   11.4780   25.8640 H   0  0  0  0  0  0  0  0  0  0  0  0
   22.3660   12.9160   24.9310 H   0  0  0  0  0  0  0  0  0  0  0  0
   23.5660   11.6940   25.4480 H   0  0  0  0  0  0  0  0  0  0  0  0
   19.6880   12.2380   21.4510 H   0  0  0  0  0  0  0  0  0  0  0  0
   17.5240   11.7780   20.4520 H   0  0  0  0  0  0  0  0  0  0  0  0
   16.4040    7.7200   20.2520 H   0  0  0  0  0  0  0  0  0  0  0  0
   18.7820    7.7780   19.5090 H   0  0  0  0  0  0  0  0  0  0  0  0
   20.9400    8.2180   20.5310 H   0  0  0  0  0  0  0  0  0  0  0  0
   21.6390   11.5960   19.1060 H   0  0  0  0  0  0  0  0  0  0  0  0
   23.3720   12.0410   17.4520 H   0  0  0  0  0  0  0  0  0  0  0  0
   25.7380   11.5220   17.9200 H   0  0  0  0  0  0  0  0  0  0  0  0
   24.6280   10.0200   21.7810 H   0  0  0  0  0  0  0  0  0  0  0  0
   29.8530    9.6280   20.3550 H   0  0  0  0  0  0  0  0  0  0  0  0
   28.2560    9.1450   22.9890 H   0  0  0  0  0  0  0  0  0  0  0  0
   29.9510    8.5930   22.6290 H   0  0  0  0  0  0  0  0  0  0  0  0
   30.6530   10.9790   22.2890 H   0  0  0  0  0  0  0  0  0  0  0  0
   28.9590   11.5290   22.6480 H   0  0  0  0  0  0  0  0  0  0  0  0
   22.9190    7.9580   24.5660 H   0  0  0  0  0  0  0  0  0  0  0  0
   22.9980    9.2780   25.6890 H   0  0  0  0  0  0  0  0  0  0  0  0
  1  2  1  0  0  0  0
  1 30  1  0  0  0  0
  1 31  1  0  0  0  0
  1 32  1  0  0  0  0
  2  3  1  0  0  0  0
  2  6  1  0  0  0  0
  3  4  2  0  0  0  0
  3 29  1  0  0  0  0
  4  5  1  0  0  0  0
  5  6  1  0  0  0  0
  5  8  1  0  0  0  0
  5 18  1  0  0  0  0
  6  7  2  0  0  0  0
  8  9  1  0  0  0  0
  8 17  2  0  0  0  0
  9 10  2  0  0  0  0
  9 33  1  0  0  0  0
 10 11  1  0  0  0  0
 10 34  1  0  0  0  0
 11 12  1  0  0  0  0
 11 16  2  0  0  0  0
 12 13  1  0  0  0  0
 13 14  1  0  0  0  0
 13 15  1  0  0  0  0
 13 35  1  0  0  0  0
 16 17  1  0  0  0  0
 16 36  1  0  0  0  0
 17 37  1  0  0  0  0
 18 19  1  0  0  0  0
 18 23  2  0  0  0  0
 19 20  2  0  0  0  0
 19 38  1  0  0  0  0
 20 21  1  0  0  0  0
 20 39  1  0  0  0  0
 21 22  2  0  0  0  0
 21 40  1  0  0  0  0
 22 23  1  0  0  0  0
 22 24  1  0  0  0  0
 23 41  1  0  0  0  0
 24 25  3  0  0  0  0
 25 26  1  0  0  0  0
 26 27  1  0  0  0  0
 26 28  1  0  0  0  0
 26 42  1  0  0  0  0
 27 28  1  0  0  0  0
 27 43  1  0  0  0  0
 27 44  1  0  0  0  0
 28 45  1  0  0  0  0
 28 46  1  0  0  0  0
 29 47  1  0  0  0  0
 29 48  1  0  0  0  0
M  END
>  <PARENT_CMPD_ID>
CHEMBL1271246

>  <STANDARD_TYPE>
IC50

>  <RELATION>
=

>  <STANDARD_VALUE>
20

>  <STANDARD_UNITS>
nM

>  <COMPOUND_KEY>
65

>  <PUBMED_ID>
20880704

>  <JOURNAL>
Bioorg. Med. Chem. Lett.

>  <YEAR>
2010

>  <VOLUME>
20

>  <FIRST_PAGE>
6597

>  <Company>
Pfizer

>  <idx>
504

>  <Model>
Valid

>  <target>
7.6989698

>  <des_pred_mlr>
6.5576801

>  <RF_Canvas>
7.1103616

>  <DNN_Canvas>
7.2966976

>  <pred_CoMFA>
7.4287

>  <pred_COMSIA>
6.6594

>  <pred_abm5>
7.300211

>  <pred_ff8>
6.7800565

>  <pred_gau6>
7.2746558

>  <CID>
BACE_504

>  <active>
1

>  <des_class_bayes>
1

>  <maacs_class_bayes>
1

>  <radial_class_bayes>
1

>  <dend_class_bayes>
1

>  <molprint_class_bayes>
1

>  <RF_canvas>
1

>  <DNN_canvas>
1

$$$$
CHEMBL1271346
  MOE2015           3D

 48 50  0  0  1  0  0  0  0  0999 V2000
   29.2170    9.4540   23.0260 C   0  0  0  0  0  0  0  0  0  0  0  0
   29.4730    9.0480   21.6890 O   0  0  0  0  0  0  0  0  0  0  0  0
   29.2760   10.1080   20.7540 C   0  0  0  0  0  0  0  0  0  0  0  0
   27.8580   10.2920   20.4440 C   0  0  0  0  0  0  0  0  0  0  0  0
   26.6990   10.4750   20.1890 C   0  0  0  0  0  0  0  0  0  0  0  0
   25.3280   10.7360   19.8910 C   0  0  0  0  0  0  0  0  0  0  0  0
   24.9830   11.2950   18.6690 C   0  0  0  0  0  0  0  0  0  0  0  0
   23.6540   11.5840   18.4070 C   0  0  0  0  0  0  0  0  0  0  0  0
   22.6690   11.3200   19.3590 C   0  0  0  0  0  0  0  0  0  0  0  0
   22.9850   10.7350   20.5910 C   0  0  0  0  0  0  0  0  0  0  0  0
   24.3390   10.4560   20.8360 C   0  0  0  0  0  0  0  0  0  0  0  0
   21.9160   10.4880   21.6800 C   0  0  1  0  0  0  0  0  0  0  0  0
   22.2700    9.3070   22.5390 N   0  0  0  0  0  0  0  0  0  0  0  0
   22.4870    9.7620   23.7310 C   0  0  0  0  0  0  0  0  0  0  0  0
   22.8340    8.9490   24.7520 N   0  0  0  0  0  0  0  0  0  0  0  0
   22.3500   11.0910   23.8900 N   0  0  0  0  0  0  0  0  0  0  0  0
   22.5520   11.8510   25.0980 C   0  0  0  0  0  0  0  0  0  0  0  0
   21.9770   11.6380   22.6990 C   0  0  0  0  0  0  0  0  0  0  0  0
   21.7720   12.8220   22.4730 O   0  0  0  0  0  0  0  0  0  0  0  0
   20.5060   10.2500   21.1050 C   0  0  0  0  0  0  0  0  0  0  0  0
   20.1960    9.0060   20.5400 C   0  0  0  0  0  0  0  0  0  0  0  0
   18.9510    8.7500   19.9630 C   0  0  0  0  0  0  0  0  0  0  0  0
   17.9780    9.7390   19.9410 C   0  0  0  0  0  0  0  0  0  0  0  0
   16.7380    9.6220   19.3840 O   0  0  0  0  0  0  0  0  0  0  0  0
   16.1980    8.3140   19.3560 C   0  0  0  0  0  0  0  0  0  0  0  0
   16.6350    7.6830   18.2430 F   0  0  0  0  0  0  0  0  0  0  0  0
   14.8550    8.4320   19.2240 F   0  0  0  0  0  0  0  0  0  0  0  0
   18.2760   10.9850   20.4810 C   0  0  0  0  0  0  0  0  0  0  0  0
   19.5190   11.2370   21.0590 C   0  0  0  0  0  0  0  0  0  0  0  0
   29.4010    8.6000   23.6830 H   0  0  0  0  0  0  0  0  0  0  0  0
   28.1750    9.7650   23.1510 H   0  0  0  0  0  0  0  0  0  0  0  0
   29.8910   10.2660   23.3180 H   0  0  0  0  0  0  0  0  0  0  0  0
   29.7350   11.0340   21.1200 H   0  0  0  0  0  0  0  0  0  0  0  0
   29.8100    9.8270   19.8400 H   0  0  0  0  0  0  0  0  0  0  0  0
   25.7410   11.5180   17.9230 H   0  0  0  0  0  0  0  0  0  0  0  0
   23.3760   12.0340   17.4560 H   0  0  0  0  0  0  0  0  0  0  0  0
   21.6450   11.5900   19.1120 H   0  0  0  0  0  0  0  0  0  0  0  0
   24.6400   10.0190   21.7880 H   0  0  0  0  0  0  0  0  0  0  0  0
   22.9250    7.9580   24.5690 H   0  0  0  0  0  0  0  0  0  0  0  0
   23.0080    9.2780   25.6910 H   0  0  0  0  0  0  0  0  0  0  0  0
   23.5760   11.6910   25.4490 H   0  0  0  0  0  0  0  0  0  0  0  0
   21.8660   11.4820   25.8660 H   0  0  0  0  0  0  0  0  0  0  0  0
   22.3800   12.9170   24.9320 H   0  0  0  0  0  0  0  0  0  0  0  0
   20.9460    8.2150   20.5340 H   0  0  0  0  0  0  0  0  0  0  0  0
   18.7880    7.7760   19.5110 H   0  0  0  0  0  0  0  0  0  0  0  0
   16.4100    7.7190   20.2520 H   0  0  0  0  0  0  0  0  0  0  0  0
   17.5310   11.7770   20.4520 H   0  0  0  0  0  0  0  0  0  0  0  0
   19.6940   12.2360   21.4500 H   0  0  0  0  0  0  0  0  0  0  0  0
  1  2  1  0  0  0  0
  1 30  1  0  0  0  0
  1 31  1  0  0  0  0
  1 32  1  0  0  0  0
  2  3  1  0  0  0  0
  3  4  1  0  0  0  0
  3 33  1  0  0  0  0
  3 34  1  0  0  0  0
  4  5  3  0  0  0  0
  5  6  1  0  0  0  0
  6  7  1  0  0  0  0
  6 11  2  0  0  0  0
  7  8  2  0  0  0  0
  7 35  1  0  0  0  0
  8  9  1  0  0  0  0
  8 36  1  0  0  0  0
  9 10  2  0  0  0  0
  9 37  1  0  0  0  0
 10 11  1  0  0  0  0
 10 12  1  0  0  0  0
 11 38  1  0  0  0  0
 12 13  1  0  0  0  0
 12 18  1  0  0  0  0
 12 20  1  0  0  0  0
 13 14  2  0  0  0  0
 14 15  1  0  0  0  0
 14 16  1  0  0  0  0
 15 39  1  0  0  0  0
 15 40  1  0  0  0  0
 16 17  1  0  0  0  0
 16 18  1  0  0  0  0
 17 41  1  0  0  0  0
 17 42  1  0  0  0  0
 17 43  1  0  0  0  0
 18 19  2  0  0  0  0
 20 21  1  0  0  0  0
 20 29  2  0  0  0  0
 21 22  2  0  0  0  0
 21 44  1  0  0  0  0
 22 23  1  0  0  0  0
 22 45  1  0  0  0  0
 23 24  1  0  0  0  0
 23 28  2  0  0  0  0
 24 25  1  0  0  0  0
 25 26  1  0  0  0  0
 25 27  1  0  0  0  0
 25 46  1  0  0  0  0
 28 29  1  0  0  0  0
 28 47  1  0  0  0  0
 29 48  1  0  0  0  0
M  END
>  <PARENT_CMPD_ID>
CHEMBL1271346

>  <STANDARD_TYPE>
IC50

>  <RELATION>
=

>  <STANDARD_VALUE>
20

>  <STANDARD_UNITS>
nM

>  <COMPOUND_KEY>
67

>  <PUBMED_ID>
20880704

>  <JOURNAL>
Bioorg. Med. Chem. Lett.

>  <YEAR>
2010

>  <VOLUME>
20

>  <FIRST_PAGE>
6597

>  <Company>
Pfizer

>  <idx>
505

>  <Model>
Valid

>  <target>
7.6989698

>  <des_pred_mlr>
6.1308899

>  <RF_Canvas>
6.8544521

>  <DNN_Canvas>
7.0359921

>  <pred_CoMFA>
7.0531998

>  <pred_COMSIA>
6.6778998

>  <pred_abm5>
7.4960566

>  <pred_ff8>
6.7457767

>  <pred_gau6>
7.2938433

>  <CID>
BACE_505

>  <active>
1

>  <des_class_bayes>
1

>  <maacs_class_bayes>
1

>  <radial_class_bayes>
1

>  <dend_class_bayes>
1

>  <molprint_class_bayes>
1

>  <RF_canvas>
1

>  <DNN_canvas>
1

$$$$
CHEMBL1271452
  MOE2015           3D

 51 53  0  0  1  0  0  0  0  0999 V2000
   28.9740    8.4490   24.1050 C   0  0  0  0  0  0  0  0  0  0  0  0
   28.9500    8.6600   22.7050 O   0  0  0  0  0  0  0  0  0  0  0  0
   29.3700    9.9830   22.3710 C   0  0  0  0  0  0  0  0  0  0  0  0
   29.2370   10.1800   20.8680 C   0  0  0  0  0  0  0  0  0  0  0  0
   27.8340   10.3340   20.4680 C   0  0  0  0  0  0  0  0  0  0  0  0
   26.6820   10.4970   20.1770 C   0  0  0  0  0  0  0  0  0  0  0  0
   25.3120   10.7450   19.8730 C   0  0  0  0  0  0  0  0  0  0  0  0
   24.9630   11.2980   18.6510 C   0  0  0  0  0  0  0  0  0  0  0  0
   23.6320   11.5820   18.3940 C   0  0  0  0  0  0  0  0  0  0  0  0
   22.6530   11.3180   19.3510 C   0  0  0  0  0  0  0  0  0  0  0  0
   22.9750   10.7380   20.5840 C   0  0  0  0  0  0  0  0  0  0  0  0
   24.3290   10.4640   20.8250 C   0  0  0  0  0  0  0  0  0  0  0  0
   21.9120   10.4880   21.6770 C   0  0  1  0  0  0  0  0  0  0  0  0
   22.2710    9.3050   22.5320 N   0  0  0  0  0  0  0  0  0  0  0  0
   22.4780    9.7570   23.7250 C   0  0  0  0  0  0  0  0  0  0  0  0
   22.8180    8.9430   24.7470 N   0  0  0  0  0  0  0  0  0  0  0  0
   22.3340   11.0850   23.8880 N   0  0  0  0  0  0  0  0  0  0  0  0
   22.5240   11.8410   25.1000 C   0  0  0  0  0  0  0  0  0  0  0  0
   21.9720   11.6350   22.6960 C   0  0  0  0  0  0  0  0  0  0  0  0
   21.7750   12.8200   22.4700 O   0  0  0  0  0  0  0  0  0  0  0  0
   20.5040   10.2500   21.1050 C   0  0  0  0  0  0  0  0  0  0  0  0
   20.1970    9.0010   20.5510 C   0  0  0  0  0  0  0  0  0  0  0  0
   18.9610    8.7450   19.9610 C   0  0  0  0  0  0  0  0  0  0  0  0
   17.9930    9.7390   19.9090 C   0  0  0  0  0  0  0  0  0  0  0  0
   16.7690    9.6320   19.3160 O   0  0  0  0  0  0  0  0  0  0  0  0
   16.2930    8.3210   19.0760 C   0  0  0  0  0  0  0  0  0  0  0  0
   14.9730    8.4160   18.7890 F   0  0  0  0  0  0  0  0  0  0  0  0
   16.3750    7.5840   20.2050 F   0  0  0  0  0  0  0  0  0  0  0  0
   18.2830   10.9850   20.4540 C   0  0  0  0  0  0  0  0  0  0  0  0
   19.5190   11.2380   21.0470 C   0  0  0  0  0  0  0  0  0  0  0  0
   28.6590    7.4210   24.3050 H   0  0  0  0  0  0  0  0  0  0  0  0
   28.2800    9.1280   24.6090 H   0  0  0  0  0  0  0  0  0  0  0  0
   29.9860    8.5850   24.4990 H   0  0  0  0  0  0  0  0  0  0  0  0
   28.7710   10.7190   22.9200 H   0  0  0  0  0  0  0  0  0  0  0  0
   30.4220   10.0960   22.6600 H   0  0  0  0  0  0  0  0  0  0  0  0
   29.7900   11.0780   20.5730 H   0  0  0  0  0  0  0  0  0  0  0  0
   29.6750    9.3280   20.3360 H   0  0  0  0  0  0  0  0  0  0  0  0
   25.7180   11.5210   17.9030 H   0  0  0  0  0  0  0  0  0  0  0  0
   23.3470   12.0260   17.4430 H   0  0  0  0  0  0  0  0  0  0  0  0
   21.6270   11.5850   19.1070 H   0  0  0  0  0  0  0  0  0  0  0  0
   24.6360   10.0320   21.7770 H   0  0  0  0  0  0  0  0  0  0  0  0
   22.9340    7.9540   24.5630 H   0  0  0  0  0  0  0  0  0  0  0  0
   22.9620    9.2680   25.6920 H   0  0  0  0  0  0  0  0  0  0  0  0
   23.5440   11.6810   25.4610 H   0  0  0  0  0  0  0  0  0  0  0  0
   21.8290   11.4710   25.8590 H   0  0  0  0  0  0  0  0  0  0  0  0
   22.3550   12.9080   24.9340 H   0  0  0  0  0  0  0  0  0  0  0  0
   20.9410    8.2060   20.5650 H   0  0  0  0  0  0  0  0  0  0  0  0
   18.7990    7.7580   19.5410 H   0  0  0  0  0  0  0  0  0  0  0  0
   16.8090    7.8290   18.2450 H   0  0  0  0  0  0  0  0  0  0  0  0
   17.5400   11.7780   20.4100 H   0  0  0  0  0  0  0  0  0  0  0  0
   19.6920   12.2380   21.4360 H   0  0  0  0  0  0  0  0  0  0  0  0
  1  2  1  0  0  0  0
  1 31  1  0  0  0  0
  1 32  1  0  0  0  0
  1 33  1  0  0  0  0
  2  3  1  0  0  0  0
  3  4  1  0  0  0  0
  3 34  1  0  0  0  0
  3 35  1  0  0  0  0
  4  5  1  0  0  0  0
  4 36  1  0  0  0  0
  4 37  1  0  0  0  0
  5  6  3  0  0  0  0
  6  7  1  0  0  0  0
  7  8  1  0  0  0  0
  7 12  2  0  0  0  0
  8  9  2  0  0  0  0
  8 38  1  0  0  0  0
  9 10  1  0  0  0  0
  9 39  1  0  0  0  0
 10 11  2  0  0  0  0
 10 40  1  0  0  0  0
 11 12  1  0  0  0  0
 11 13  1  0  0  0  0
 12 41  1  0  0  0  0
 13 14  1  0  0  0  0
 13 19  1  0  0  0  0
 13 21  1  0  0  0  0
 14 15  2  0  0  0  0
 15 16  1  0  0  0  0
 15 17  1  0  0  0  0
 16 42  1  0  0  0  0
 16 43  1  0  0  0  0
 17 18  1  0  0  0  0
 17 19  1  0  0  0  0
 18 44  1  0  0  0  0
 18 45  1  0  0  0  0
 18 46  1  0  0  0  0
 19 20  2  0  0  0  0
 21 22  1  0  0  0  0
 21 30  2  0  0  0  0
 22 23  2  0  0  0  0
 22 47  1  0  0  0  0
 23 24  1  0  0  0  0
 23 48  1  0  0  0  0
 24 25  1  0  0  0  0
 24 29  2  0  0  0  0
 25 26  1  0  0  0  0
 26 27  1  0  0  0  0
 26 28  1  0  0  0  0
 26 49  1  0  0  0  0
 29 30  1  0  0  0  0
 29 50  1  0  0  0  0
 30 51  1  0  0  0  0
M  END
>  <PARENT_CMPD_ID>
CHEMBL1271452

>  <STANDARD_TYPE>
IC50

>  <RELATION>
=

>  <STANDARD_VALUE>
20

>  <STANDARD_UNITS>
nM

>  <COMPOUND_KEY>
68

>  <PUBMED_ID>
20880704

>  <JOURNAL>
Bioorg. Med. Chem. Lett.

>  <YEAR>
2010

>  <VOLUME>
20

>  <FIRST_PAGE>
6597

>  <Company>
Pfizer

>  <idx>
506

>  <Model>
Valid

>  <target>
7.6989698

>  <des_pred_mlr>
6.1838498

>  <RF_Canvas>
7.0215178

>  <DNN_Canvas>
7.2066979

>  <pred_CoMFA>
7.6405001

>  <pred_COMSIA>
6.9386001

>  <pred_abm5>
7.4648681

>  <pred_ff8>
5.445323

>  <pred_gau6>
7.682147

>  <CID>
BACE_506

>  <active>
1

>  <des_class_bayes>
1

>  <maacs_class_bayes>
1

>  <radial_class_bayes>
1

>  <dend_class_bayes>
1

>  <molprint_class_bayes>
1

>  <RF_canvas>
1

>  <DNN_canvas>
1

$$$$
CHEMBL1269920
  MOE2015           3D

 48 50  0  0  1  0  0  0  0  0999 V2000
   29.3120    9.9750   22.4570 C   0  0  0  0  0  0  0  0  0  0  0  0
   29.1950    9.9560   20.9420 C   0  0  1  0  0  0  0  0  0  0  0  0
   29.5650    8.6620   20.4750 O   0  0  0  0  0  0  0  0  0  0  0  0
   27.8300   10.2550   20.5110 C   0  0  0  0  0  0  0  0  0  0  0  0
   26.6930   10.4800   20.2000 C   0  0  0  0  0  0  0  0  0  0  0  0
   25.3270   10.7460   19.8880 C   0  0  0  0  0  0  0  0  0  0  0  0
   24.9850   11.3010   18.6660 C   0  0  0  0  0  0  0  0  0  0  0  0
   23.6550   11.5860   18.4010 C   0  0  0  0  0  0  0  0  0  0  0  0
   22.6690   11.3190   19.3510 C   0  0  0  0  0  0  0  0  0  0  0  0
   22.9820   10.7380   20.5850 C   0  0  0  0  0  0  0  0  0  0  0  0
   24.3360   10.4630   20.8320 C   0  0  0  0  0  0  0  0  0  0  0  0
   21.9160   10.4890   21.6750 C   0  0  1  0  0  0  0  0  0  0  0  0
   22.2720    9.3060   22.5330 N   0  0  0  0  0  0  0  0  0  0  0  0
   22.4920    9.7600   23.7240 C   0  0  0  0  0  0  0  0  0  0  0  0
   22.8420    8.9470   24.7440 N   0  0  0  0  0  0  0  0  0  0  0  0
   22.3570   11.0900   23.8850 N   0  0  0  0  0  0  0  0  0  0  0  0
   22.5650   11.8480   25.0920 C   0  0  0  0  0  0  0  0  0  0  0  0
   21.9820   11.6370   22.6950 C   0  0  0  0  0  0  0  0  0  0  0  0
   21.7760   12.8220   22.4710 O   0  0  0  0  0  0  0  0  0  0  0  0
   20.5060   10.2520   21.1030 C   0  0  0  0  0  0  0  0  0  0  0  0
   19.5180   11.2370   21.0600 C   0  0  0  0  0  0  0  0  0  0  0  0
   18.2740   10.9850   20.4830 C   0  0  0  0  0  0  0  0  0  0  0  0
   17.9770    9.7400   19.9410 C   0  0  0  0  0  0  0  0  0  0  0  0
   16.7370    9.6220   19.3850 O   0  0  0  0  0  0  0  0  0  0  0  0
   16.1980    8.3140   19.3580 C   0  0  0  0  0  0  0  0  0  0  0  0
   16.6340    7.6830   18.2440 F   0  0  0  0  0  0  0  0  0  0  0  0
   14.8540    8.4320   19.2270 F   0  0  0  0  0  0  0  0  0  0  0  0
   18.9520    8.7520   19.9590 C   0  0  0  0  0  0  0  0  0  0  0  0
   20.1970    9.0080   20.5350 C   0  0  0  0  0  0  0  0  0  0  0  0
   29.0540   10.9570   22.8680 H   0  0  0  0  0  0  0  0  0  0  0  0
   30.3340    9.7260   22.7650 H   0  0  0  0  0  0  0  0  0  0  0  0
   28.6540    9.2280   22.9170 H   0  0  0  0  0  0  0  0  0  0  0  0
   29.8980   10.6760   20.5100 H   0  0  0  0  0  0  0  0  0  0  0  0
   28.8430    8.0560   20.7160 H   0  0  0  0  0  0  0  0  0  0  0  0
   25.7450   11.5250   17.9220 H   0  0  0  0  0  0  0  0  0  0  0  0
   23.3780   12.0340   17.4490 H   0  0  0  0  0  0  0  0  0  0  0  0
   21.6440   11.5870   19.1020 H   0  0  0  0  0  0  0  0  0  0  0  0
   24.6360   10.0290   21.7850 H   0  0  0  0  0  0  0  0  0  0  0  0
   22.9230    7.9550   24.5630 H   0  0  0  0  0  0  0  0  0  0  0  0
   23.0310    9.2770   25.6800 H   0  0  0  0  0  0  0  0  0  0  0  0
   23.5910   11.6890   25.4380 H   0  0  0  0  0  0  0  0  0  0  0  0
   21.8820   11.4790   25.8630 H   0  0  0  0  0  0  0  0  0  0  0  0
   22.3930   12.9150   24.9270 H   0  0  0  0  0  0  0  0  0  0  0  0
   19.6930   12.2360   21.4530 H   0  0  0  0  0  0  0  0  0  0  0  0
   17.5290   11.7760   20.4560 H   0  0  0  0  0  0  0  0  0  0  0  0
   16.4110    7.7190   20.2540 H   0  0  0  0  0  0  0  0  0  0  0  0
   18.7890    7.7790   19.5050 H   0  0  0  0  0  0  0  0  0  0  0  0
   20.9490    8.2190   20.5250 H   0  0  0  0  0  0  0  0  0  0  0  0
  1  2  1  0  0  0  0
  1 30  1  0  0  0  0
  1 31  1  0  0  0  0
  1 32  1  0  0  0  0
  2  3  1  0  0  0  0
  2  4  1  0  0  0  0
  2 33  1  0  0  0  0
  3 34  1  0  0  0  0
  4  5  3  0  0  0  0
  5  6  1  0  0  0  0
  6  7  1  0  0  0  0
  6 11  2  0  0  0  0
  7  8  2  0  0  0  0
  7 35  1  0  0  0  0
  8  9  1  0  0  0  0
  8 36  1  0  0  0  0
  9 10  2  0  0  0  0
  9 37  1  0  0  0  0
 10 11  1  0  0  0  0
 10 12  1  0  0  0  0
 11 38  1  0  0  0  0
 12 13  1  0  0  0  0
 12 18  1  0  0  0  0
 12 20  1  0  0  0  0
 13 14  2  0  0  0  0
 14 15  1  0  0  0  0
 14 16  1  0  0  0  0
 15 39  1  0  0  0  0
 15 40  1  0  0  0  0
 16 17  1  0  0  0  0
 16 18  1  0  0  0  0
 17 41  1  0  0  0  0
 17 42  1  0  0  0  0
 17 43  1  0  0  0  0
 18 19  2  0  0  0  0
 20 21  1  0  0  0  0
 20 29  2  0  0  0  0
 21 22  2  0  0  0  0
 21 44  1  0  0  0  0
 22 23  1  0  0  0  0
 22 45  1  0  0  0  0
 23 24  1  0  0  0  0
 23 28  2  0  0  0  0
 24 25  1  0  0  0  0
 25 26  1  0  0  0  0
 25 27  1  0  0  0  0
 25 46  1  0  0  0  0
 28 29  1  0  0  0  0
 28 47  1  0  0  0  0
 29 48  1  0  0  0  0
M  END
>  <PARENT_CMPD_ID>
CHEMBL1269920

>  <STANDARD_TYPE>
IC50

>  <RELATION>
=

>  <STANDARD_VALUE>
20

>  <STANDARD_UNITS>
nM

>  <COMPOUND_KEY>
70

>  <PUBMED_ID>
20880704

>  <JOURNAL>
Bioorg. Med. Chem. Lett.

>  <YEAR>
2010

>  <VOLUME>
20

>  <FIRST_PAGE>
6597

>  <Company>
Pfizer

>  <idx>
507

>  <Model>
Valid

>  <target>
7.6989698

>  <des_pred_mlr>
6.0741801

>  <RF_Canvas>
7.0889511

>  <DNN_Canvas>
7.1725092

>  <pred_CoMFA>
7.2652001

>  <pred_COMSIA>
6.6373

>  <pred_abm5>
7.237195

>  <pred_ff8>
6.35116

>  <pred_gau6>
7.3326054

>  <CID>
BACE_507

>  <active>
1

>  <des_class_bayes>
1

>  <maacs_class_bayes>
1

>  <radial_class_bayes>
1

>  <dend_class_bayes>
1

>  <molprint_class_bayes>
1

>  <RF_canvas>
1

>  <DNN_canvas>
1

$$$$
CHEMBL1270240
  MOE2015           3D

 50 53  0  0  1  0  0  0  0  0999 V2000
   22.5280   11.8570   25.1120 C   0  0  0  0  0  0  0  0  0  0  0  0
   22.3310   11.0930   23.9070 N   0  0  0  0  0  0  0  0  0  0  0  0
   22.4520    9.7600   23.7600 C   0  0  0  0  0  0  0  0  0  0  0  0
   22.2370    9.3000   22.5710 N   0  0  0  0  0  0  0  0  0  0  0  0
   21.9290   10.4830   21.6950 C   0  0  2  0  0  0  0  0  0  0  0  0
   21.9810   11.6360   22.7070 C   0  0  0  0  0  0  0  0  0  0  0  0
   21.7910   12.8200   22.4720 O   0  0  0  0  0  0  0  0  0  0  0  0
   20.5400   10.2620   21.0780 C   0  0  0  0  0  0  0  0  0  0  0  0
   19.5560   11.2500   21.0170 C   0  0  0  0  0  0  0  0  0  0  0  0
   18.3160   10.9940   20.4310 C   0  0  0  0  0  0  0  0  0  0  0  0
   18.0210    9.7460   19.8950 C   0  0  0  0  0  0  0  0  0  0  0  0
   16.7900    9.6340   19.3170 O   0  0  0  0  0  0  0  0  0  0  0  0
   16.3110    8.3220   19.0880 C   0  0  0  0  0  0  0  0  0  0  0  0
   14.9890    8.4150   18.8100 F   0  0  0  0  0  0  0  0  0  0  0  0
   16.4030    7.5920   20.2200 F   0  0  0  0  0  0  0  0  0  0  0  0
   18.9910    8.7540   19.9440 C   0  0  0  0  0  0  0  0  0  0  0  0
   20.2310    9.0130   20.5260 C   0  0  0  0  0  0  0  0  0  0  0  0
   23.0480   10.6890   20.6500 C   0  0  0  0  0  0  0  0  0  0  0  0
   22.8640   11.4040   19.4650 C   0  0  0  0  0  0  0  0  0  0  0  0
   23.9220   11.5910   18.5690 C   0  0  0  0  0  0  0  0  0  0  0  0
   25.1880   11.0760   18.8380 C   0  0  0  0  0  0  0  0  0  0  0  0
   25.3960   10.3740   20.0120 C   0  0  0  0  0  0  0  0  0  0  0  0
   26.5420    9.7170   20.3520 O   0  0  0  0  0  0  0  0  0  0  0  0
   27.7730   10.3930   20.1210 C   0  0  0  0  0  0  0  0  0  0  0  0
   28.4450   10.5960   21.4430 C   0  0  0  0  0  0  0  0  0  0  0  0
   29.9290   10.4570   21.5860 C   0  0  0  0  0  0  0  0  0  0  0  0
   29.0270    9.4470   22.2270 C   0  0  0  0  0  0  0  0  0  0  0  0
   24.3370   10.1920   20.8980 C   0  0  0  0  0  0  0  0  0  0  0  0
   22.7860    8.9490   24.7850 N   0  0  0  0  0  0  0  0  0  0  0  0
   21.8300   11.5000   25.8750 H   0  0  0  0  0  0  0  0  0  0  0  0
   22.3690   12.9240   24.9370 H   0  0  0  0  0  0  0  0  0  0  0  0
   23.5460   11.6900   25.4740 H   0  0  0  0  0  0  0  0  0  0  0  0
   19.7270   12.2500   21.4070 H   0  0  0  0  0  0  0  0  0  0  0  0
   17.5740   11.7880   20.3900 H   0  0  0  0  0  0  0  0  0  0  0  0
   16.8210    7.8250   18.2560 H   0  0  0  0  0  0  0  0  0  0  0  0
   18.8250    7.7640   19.5310 H   0  0  0  0  0  0  0  0  0  0  0  0
   20.9740    8.2160   20.5460 H   0  0  0  0  0  0  0  0  0  0  0  0
   21.8960   11.8360   19.2190 H   0  0  0  0  0  0  0  0  0  0  0  0
   23.7510   12.1410   17.6460 H   0  0  0  0  0  0  0  0  0  0  0  0
   25.9770   11.1950   18.1020 H   0  0  0  0  0  0  0  0  0  0  0  0
   28.3790    9.7630   19.4600 H   0  0  0  0  0  0  0  0  0  0  0  0
   27.6560   11.3690   19.6370 H   0  0  0  0  0  0  0  0  0  0  0  0
   27.9510   11.3750   22.0140 H   0  0  0  0  0  0  0  0  0  0  0  0
   30.5140   10.1380   20.7300 H   0  0  0  0  0  0  0  0  0  0  0  0
   30.4450   11.1590   22.2310 H   0  0  0  0  0  0  0  0  0  0  0  0
   28.9220    9.4680   23.3060 H   0  0  0  0  0  0  0  0  0  0  0  0
   28.9770    8.4550   21.7940 H   0  0  0  0  0  0  0  0  0  0  0  0
   24.5390    9.6180   21.8010 H   0  0  0  0  0  0  0  0  0  0  0  0
   22.8820    7.9570   24.6080 H   0  0  0  0  0  0  0  0  0  0  0  0
   22.9440    9.2800   25.7250 H   0  0  0  0  0  0  0  0  0  0  0  0
  1  2  1  0  0  0  0
  1 30  1  0  0  0  0
  1 31  1  0  0  0  0
  1 32  1  0  0  0  0
  2  3  1  0  0  0  0
  2  6  1  0  0  0  0
  3  4  2  0  0  0  0
  3 29  1  0  0  0  0
  4  5  1  0  0  0  0
  5  6  1  0  0  0  0
  5  8  1  0  0  0  0
  5 18  1  0  0  0  0
  6  7  2  0  0  0  0
  8  9  1  0  0  0  0
  8 17  2  0  0  0  0
  9 10  2  0  0  0  0
  9 33  1  0  0  0  0
 10 11  1  0  0  0  0
 10 34  1  0  0  0  0
 11 12  1  0  0  0  0
 11 16  2  0  0  0  0
 12 13  1  0  0  0  0
 13 14  1  0  0  0  0
 13 15  1  0  0  0  0
 13 35  1  0  0  0  0
 16 17  1  0  0  0  0
 16 36  1  0  0  0  0
 17 37  1  0  0  0  0
 18 19  1  0  0  0  0
 18 28  2  0  0  0  0
 19 20  2  0  0  0  0
 19 38  1  0  0  0  0
 20 21  1  0  0  0  0
 20 39  1  0  0  0  0
 21 22  2  0  0  0  0
 21 40  1  0  0  0  0
 22 23  1  0  0  0  0
 22 28  1  0  0  0  0
 23 24  1  0  0  0  0
 24 25  1  0  0  0  0
 24 41  1  0  0  0  0
 24 42  1  0  0  0  0
 25 26  1  0  0  0  0
 25 27  1  0  0  0  0
 25 43  1  0  0  0  0
 26 27  1  0  0  0  0
 26 44  1  0  0  0  0
 26 45  1  0  0  0  0
 27 46  1  0  0  0  0
 27 47  1  0  0  0  0
 28 48  1  0  0  0  0
 29 49  1  0  0  0  0
 29 50  1  0  0  0  0
M  END
>  <PARENT_CMPD_ID>
CHEMBL1270240

>  <STANDARD_TYPE>
IC50

>  <RELATION>
=

>  <STANDARD_VALUE>
20

>  <STANDARD_UNITS>
nM

>  <COMPOUND_KEY>
76

>  <PUBMED_ID>
20880704

>  <JOURNAL>
Bioorg. Med. Chem. Lett.

>  <YEAR>
2010

>  <VOLUME>
20

>  <FIRST_PAGE>
6597

>  <Company>
Pfizer

>  <idx>
508

>  <Model>
Valid

>  <target>
7.6989698

>  <des_pred_mlr>
6.5061698

>  <RF_Canvas>
7.1449294

>  <DNN_Canvas>
6.3383155

>  <pred_CoMFA>
7.1094999

>  <pred_COMSIA>
6.7024002

>  <pred_abm5>
7.6649542

>  <pred_ff8>
6.1398106

>  <pred_gau6>
7.2697668

>  <CID>
BACE_508

>  <active>
1

>  <des_class_bayes>
1

>  <maacs_class_bayes>
1

>  <radial_class_bayes>
1

>  <dend_class_bayes>
1

>  <molprint_class_bayes>
1

>  <RF_canvas>
1

>  <DNN_canvas>
1

$$$$
CHEMBL1270335
  MOE2015           3D

 48 51  0  0  1  0  0  0  0  0999 V2000
   22.5340   11.8480   25.1160 C   0  0  0  0  0  0  0  0  0  0  0  0
   22.3260   11.0870   23.9100 N   0  0  0  0  0  0  0  0  0  0  0  0
   22.4660    9.7570   23.7490 C   0  0  0  0  0  0  0  0  0  0  0  0
   22.2410    9.3020   22.5590 N   0  0  0  0  0  0  0  0  0  0  0  0
   21.8750   10.4810   21.7050 C   0  0  2  0  0  0  0  0  0  0  0  0
   21.9490   11.6320   22.7190 C   0  0  0  0  0  0  0  0  0  0  0  0
   21.7590   12.8180   22.4870 O   0  0  0  0  0  0  0  0  0  0  0  0
   20.4680   10.2440   21.1310 C   0  0  0  0  0  0  0  0  0  0  0  0
   19.4840   11.2330   21.0790 C   0  0  0  0  0  0  0  0  0  0  0  0
   18.2470   10.9830   20.4890 C   0  0  0  0  0  0  0  0  0  0  0  0
   17.9520    9.7380   19.9460 C   0  0  0  0  0  0  0  0  0  0  0  0
   16.7140    9.6220   19.3830 O   0  0  0  0  0  0  0  0  0  0  0  0
   16.1730    8.3140   19.3550 C   0  0  0  0  0  0  0  0  0  0  0  0
   16.6260    7.6780   18.2500 F   0  0  0  0  0  0  0  0  0  0  0  0
   14.8320    8.4320   19.2040 F   0  0  0  0  0  0  0  0  0  0  0  0
   18.9230    8.7480   19.9710 C   0  0  0  0  0  0  0  0  0  0  0  0
   20.1620    9.0010   20.5600 C   0  0  0  0  0  0  0  0  0  0  0  0
   22.9350   10.7310   20.6120 C   0  0  0  0  0  0  0  0  0  0  0  0
   22.6060   11.3210   19.3850 C   0  0  0  0  0  0  0  0  0  0  0  0
   23.5810   11.5890   18.4330 C   0  0  0  0  0  0  0  0  0  0  0  0
   24.9040   11.2960   18.7020 C   0  0  0  0  0  0  0  0  0  0  0  0
   25.8210   11.5790   17.7750 F   0  0  0  0  0  0  0  0  0  0  0  0
   25.2730   10.7340   19.9100 C   0  0  0  0  0  0  0  0  0  0  0  0
   24.2900   10.4500   20.8550 C   0  0  0  0  0  0  0  0  0  0  0  0
   26.6410   10.4660   20.2100 C   0  0  0  0  0  0  0  0  0  0  0  0
   27.7760   10.2410   20.5270 C   0  0  0  0  0  0  0  0  0  0  0  0
   29.0750    9.9510   21.0510 C   0  0  0  0  0  0  0  0  0  0  0  0
   29.1730    9.3410   22.4300 C   0  0  0  0  0  0  0  0  0  0  0  0
   29.5910   10.7570   22.2060 C   0  0  0  0  0  0  0  0  0  0  0  0
   22.8250    8.9460   24.7660 N   0  0  0  0  0  0  0  0  0  0  0  0
   21.8620   11.4700   25.8920 H   0  0  0  0  0  0  0  0  0  0  0  0
   22.3480   12.9120   24.9520 H   0  0  0  0  0  0  0  0  0  0  0  0
   23.5640   11.7010   25.4530 H   0  0  0  0  0  0  0  0  0  0  0  0
   19.6580   12.2310   21.4740 H   0  0  0  0  0  0  0  0  0  0  0  0
   17.5040   11.7770   20.4540 H   0  0  0  0  0  0  0  0  0  0  0  0
   16.3730    7.7240   20.2570 H   0  0  0  0  0  0  0  0  0  0  0  0
   18.7620    7.7750   19.5160 H   0  0  0  0  0  0  0  0  0  0  0  0
   20.9130    8.2100   20.5570 H   0  0  0  0  0  0  0  0  0  0  0  0
   21.5800   11.5920   19.1470 H   0  0  0  0  0  0  0  0  0  0  0  0
   23.3130   12.0410   17.4820 H   0  0  0  0  0  0  0  0  0  0  0  0
   24.5920   10.0100   21.8040 H   0  0  0  0  0  0  0  0  0  0  0  0
   29.8100    9.6220   20.3220 H   0  0  0  0  0  0  0  0  0  0  0  0
   28.2620    9.1630   22.9890 H   0  0  0  0  0  0  0  0  0  0  0  0
   29.9480    8.6030   22.6000 H   0  0  0  0  0  0  0  0  0  0  0  0
   30.6510   10.9840   22.2290 H   0  0  0  0  0  0  0  0  0  0  0  0
   28.9670   11.5420   22.6170 H   0  0  0  0  0  0  0  0  0  0  0  0
   22.9160    7.9550   24.5830 H   0  0  0  0  0  0  0  0  0  0  0  0
   23.0090    9.2760   25.7020 H   0  0  0  0  0  0  0  0  0  0  0  0
  1  2  1  0  0  0  0
  1 31  1  0  0  0  0
  1 32  1  0  0  0  0
  1 33  1  0  0  0  0
  2  3  1  0  0  0  0
  2  6  1  0  0  0  0
  3  4  2  0  0  0  0
  3 30  1  0  0  0  0
  4  5  1  0  0  0  0
  5  6  1  0  0  0  0
  5  8  1  0  0  0  0
  5 18  1  0  0  0  0
  6  7  2  0  0  0  0
  8  9  1  0  0  0  0
  8 17  2  0  0  0  0
  9 10  2  0  0  0  0
  9 34  1  0  0  0  0
 10 11  1  0  0  0  0
 10 35  1  0  0  0  0
 11 12  1  0  0  0  0
 11 16  2  0  0  0  0
 12 13  1  0  0  0  0
 13 14  1  0  0  0  0
 13 15  1  0  0  0  0
 13 36  1  0  0  0  0
 16 17  1  0  0  0  0
 16 37  1  0  0  0  0
 17 38  1  0  0  0  0
 18 19  2  0  0  0  0
 18 24  1  0  0  0  0
 19 20  1  0  0  0  0
 19 39  1  0  0  0  0
 20 21  2  0  0  0  0
 20 40  1  0  0  0  0
 21 22  1  0  0  0  0
 21 23  1  0  0  0  0
 23 24  2  0  0  0  0
 23 25  1  0  0  0  0
 24 41  1  0  0  0  0
 25 26  3  0  0  0  0
 26 27  1  0  0  0  0
 27 28  1  0  0  0  0
 27 29  1  0  0  0  0
 27 42  1  0  0  0  0
 28 29  1  0  0  0  0
 28 43  1  0  0  0  0
 28 44  1  0  0  0  0
 29 45  1  0  0  0  0
 29 46  1  0  0  0  0
 30 47  1  0  0  0  0
 30 48  1  0  0  0  0
M  END
>  <PARENT_CMPD_ID>
CHEMBL1270335

>  <STANDARD_TYPE>
IC50

>  <RELATION>
=

>  <STANDARD_VALUE>
20

>  <STANDARD_UNITS>
nM

>  <COMPOUND_KEY>
84

>  <PUBMED_ID>
20880704

>  <JOURNAL>
Bioorg. Med. Chem. Lett.

>  <YEAR>
2010

>  <VOLUME>
20

>  <FIRST_PAGE>
6597

>  <Company>
Pfizer

>  <idx>
509

>  <Model>
Valid

>  <target>
7.6989698

>  <des_pred_mlr>
6.7525201

>  <RF_Canvas>
7.5414538

>  <DNN_Canvas>
7.4180717

>  <pred_CoMFA>
7.4949999

>  <pred_COMSIA>
6.6402001

>  <pred_abm5>
7.3072128

>  <pred_ff8>
6.6665812

>  <pred_gau6>
7.3551292

>  <CID>
BACE_509

>  <active>
1

>  <des_class_bayes>
1

>  <maacs_class_bayes>
1

>  <radial_class_bayes>
1

>  <dend_class_bayes>
1

>  <molprint_class_bayes>
1

>  <RF_canvas>
1

>  <DNN_canvas>
1

$$$$
CHEMBL1270432
  MOE2015           3D

 51 54  0  0  1  0  0  0  0  0999 V2000
   22.5390   11.8630   25.1360 C   0  0  0  0  0  0  0  0  0  0  0  0
   22.3300   11.1050   23.9280 N   0  0  0  0  0  0  0  0  0  0  0  0
   22.4680    9.7750   23.7650 C   0  0  0  0  0  0  0  0  0  0  0  0
   22.2450    9.3230   22.5740 N   0  0  0  0  0  0  0  0  0  0  0  0
   21.8800   10.5060   21.7260 C   0  0  2  0  0  0  0  0  0  0  0  0
   21.9540   11.6540   22.7390 C   0  0  0  0  0  0  0  0  0  0  0  0
   21.7610   12.8380   22.5050 O   0  0  0  0  0  0  0  0  0  0  0  0
   20.4750   10.2660   21.1540 C   0  0  0  0  0  0  0  0  0  0  0  0
   19.4590   11.2160   21.1460 C   0  0  0  0  0  0  0  0  0  0  0  0
   18.2330   10.9390   20.5440 C   0  0  0  0  0  0  0  0  0  0  0  0
   17.9780    9.7120   19.9280 C   0  0  0  0  0  0  0  0  0  0  0  0
   16.7350    9.6280   19.3680 O   0  0  0  0  0  0  0  0  0  0  0  0
   16.0820    8.3750   19.4300 C   0  0  0  0  0  0  0  0  0  0  0  0
   16.3180    7.7030   18.2810 F   0  0  0  0  0  0  0  0  0  0  0  0
   14.7470    8.6130   19.4460 F   0  0  0  0  0  0  0  0  0  0  0  0
   19.0000    8.7630   19.8810 C   0  0  0  0  0  0  0  0  0  0  0  0
   18.9250    7.4720   19.1260 C   0  0  0  0  0  0  0  0  0  0  0  0
   20.2150    9.0450   20.5220 C   0  0  0  0  0  0  0  0  0  0  0  0
   22.9380   10.7520   20.6300 C   0  0  0  0  0  0  0  0  0  0  0  0
   22.6060   11.3390   19.4020 C   0  0  0  0  0  0  0  0  0  0  0  0
   23.5780   11.5960   18.4430 C   0  0  0  0  0  0  0  0  0  0  0  0
   24.9000   11.2970   18.7070 C   0  0  0  0  0  0  0  0  0  0  0  0
   25.8140   11.5710   17.7740 F   0  0  0  0  0  0  0  0  0  0  0  0
   25.2720   10.7380   19.9150 C   0  0  0  0  0  0  0  0  0  0  0  0
   24.2920   10.4630   20.8660 C   0  0  0  0  0  0  0  0  0  0  0  0
   26.6400   10.4660   20.2100 C   0  0  0  0  0  0  0  0  0  0  0  0
   27.7760   10.2400   20.5260 C   0  0  0  0  0  0  0  0  0  0  0  0
   29.0750    9.9500   21.0490 C   0  0  0  0  0  0  0  0  0  0  0  0
   29.1740    9.3430   22.4280 C   0  0  0  0  0  0  0  0  0  0  0  0
   29.5920   10.7590   22.2020 C   0  0  0  0  0  0  0  0  0  0  0  0
   22.8260    8.9600   24.7800 N   0  0  0  0  0  0  0  0  0  0  0  0
   21.8650   11.4860   25.9110 H   0  0  0  0  0  0  0  0  0  0  0  0
   22.3560   12.9280   24.9740 H   0  0  0  0  0  0  0  0  0  0  0  0
   23.5690   11.7120   25.4740 H   0  0  0  0  0  0  0  0  0  0  0  0
   19.5930   12.1990   21.5900 H   0  0  0  0  0  0  0  0  0  0  0  0
   17.4580   11.7030   20.5520 H   0  0  0  0  0  0  0  0  0  0  0  0
   16.3350    7.7710   20.3080 H   0  0  0  0  0  0  0  0  0  0  0  0
   19.9060    6.9890   19.0510 H   0  0  0  0  0  0  0  0  0  0  0  0
   18.6000    7.6490   18.0970 H   0  0  0  0  0  0  0  0  0  0  0  0
   18.2620    6.7600   19.6250 H   0  0  0  0  0  0  0  0  0  0  0  0
   21.0140    8.3010   20.4920 H   0  0  0  0  0  0  0  0  0  0  0  0
   21.5800   11.6170   19.1700 H   0  0  0  0  0  0  0  0  0  0  0  0
   23.3070   12.0470   17.4920 H   0  0  0  0  0  0  0  0  0  0  0  0
   24.5970   10.0250   21.8160 H   0  0  0  0  0  0  0  0  0  0  0  0
   29.8090    9.6200   20.3190 H   0  0  0  0  0  0  0  0  0  0  0  0
   28.2640    9.1650   22.9890 H   0  0  0  0  0  0  0  0  0  0  0  0
   29.9500    8.6050   22.6000 H   0  0  0  0  0  0  0  0  0  0  0  0
   30.6520   10.9860   22.2240 H   0  0  0  0  0  0  0  0  0  0  0  0
   28.9670   11.5440   22.6120 H   0  0  0  0  0  0  0  0  0  0  0  0
   22.9170    7.9690   24.5930 H   0  0  0  0  0  0  0  0  0  0  0  0
   23.0080    9.2860   25.7170 H   0  0  0  0  0  0  0  0  0  0  0  0
  1  2  1  0  0  0  0
  1 32  1  0  0  0  0
  1 33  1  0  0  0  0
  1 34  1  0  0  0  0
  2  3  1  0  0  0  0
  2  6  1  0  0  0  0
  3  4  2  0  0  0  0
  3 31  1  0  0  0  0
  4  5  1  0  0  0  0
  5  6  1  0  0  0  0
  5  8  1  0  0  0  0
  5 19  1  0  0  0  0
  6  7  2  0  0  0  0
  8  9  2  0  0  0  0
  8 18  1  0  0  0  0
  9 10  1  0  0  0  0
  9 35  1  0  0  0  0
 10 11  2  0  0  0  0
 10 36  1  0  0  0  0
 11 12  1  0  0  0  0
 11 16  1  0  0  0  0
 12 13  1  0  0  0  0
 13 14  1  0  0  0  0
 13 15  1  0  0  0  0
 13 37  1  0  0  0  0
 16 17  1  0  0  0  0
 16 18  2  0  0  0  0
 17 38  1  0  0  0  0
 17 39  1  0  0  0  0
 17 40  1  0  0  0  0
 18 41  1  0  0  0  0
 19 20  2  0  0  0  0
 19 25  1  0  0  0  0
 20 21  1  0  0  0  0
 20 42  1  0  0  0  0
 21 22  2  0  0  0  0
 21 43  1  0  0  0  0
 22 23  1  0  0  0  0
 22 24  1  0  0  0  0
 24 25  2  0  0  0  0
 24 26  1  0  0  0  0
 25 44  1  0  0  0  0
 26 27  3  0  0  0  0
 27 28  1  0  0  0  0
 28 29  1  0  0  0  0
 28 30  1  0  0  0  0
 28 45  1  0  0  0  0
 29 30  1  0  0  0  0
 29 46  1  0  0  0  0
 29 47  1  0  0  0  0
 30 48  1  0  0  0  0
 30 49  1  0  0  0  0
 31 50  1  0  0  0  0
 31 51  1  0  0  0  0
M  END
>  <PARENT_CMPD_ID>
CHEMBL1270432

>  <STANDARD_TYPE>
IC50

>  <RELATION>
=

>  <STANDARD_VALUE>
20

>  <STANDARD_UNITS>
nM

>  <COMPOUND_KEY>
85

>  <PUBMED_ID>
20880704

>  <JOURNAL>
Bioorg. Med. Chem. Lett.

>  <YEAR>
2010

>  <VOLUME>
20

>  <FIRST_PAGE>
6597

>  <Company>
Pfizer

>  <idx>
510

>  <Model>
Valid

>  <target>
7.6989698

>  <des_pred_mlr>
6.9814501

>  <RF_Canvas>
7.5595942

>  <DNN_Canvas>
7.6257429

>  <pred_CoMFA>
7.8709002

>  <pred_COMSIA>
6.9821

>  <pred_abm5>
7.4984522

>  <pred_ff8>
7.0323424

>  <pred_gau6>
7.5475235

>  <CID>
BACE_510

>  <active>
1

>  <des_class_bayes>
1

>  <maacs_class_bayes>
1

>  <radial_class_bayes>
1

>  <dend_class_bayes>
1

>  <molprint_class_bayes>
1

>  <RF_canvas>
1

>  <DNN_canvas>
1

$$$$
CHEMBL1270631
  MOE2015           3D

 47 49  0  0  1  0  0  0  0  0999 V2000
   22.5500   11.8630   25.1350 C   0  0  0  0  0  0  0  0  0  0  0  0
   22.3380   11.1040   23.9290 N   0  0  0  0  0  0  0  0  0  0  0  0
   22.4740    9.7730   23.7670 C   0  0  0  0  0  0  0  0  0  0  0  0
   22.2480    9.3190   22.5770 N   0  0  0  0  0  0  0  0  0  0  0  0
   21.8890   10.5030   21.7270 C   0  0  2  0  0  0  0  0  0  0  0  0
   21.9610   11.6510   22.7390 C   0  0  0  0  0  0  0  0  0  0  0  0
   21.7640   12.8350   22.5060 O   0  0  0  0  0  0  0  0  0  0  0  0
   20.4840   10.2650   21.1510 C   0  0  0  0  0  0  0  0  0  0  0  0
   19.4690   11.2150   21.1440 C   0  0  0  0  0  0  0  0  0  0  0  0
   18.2410   10.9390   20.5430 C   0  0  0  0  0  0  0  0  0  0  0  0
   17.9850    9.7110   19.9280 C   0  0  0  0  0  0  0  0  0  0  0  0
   16.7410    9.6280   19.3700 O   0  0  0  0  0  0  0  0  0  0  0  0
   16.0880    8.3760   19.4310 C   0  0  0  0  0  0  0  0  0  0  0  0
   16.3230    7.7030   18.2820 F   0  0  0  0  0  0  0  0  0  0  0  0
   14.7530    8.6140   19.4480 F   0  0  0  0  0  0  0  0  0  0  0  0
   19.0070    8.7620   19.8810 C   0  0  0  0  0  0  0  0  0  0  0  0
   18.9310    7.4710   19.1270 C   0  0  0  0  0  0  0  0  0  0  0  0
   20.2230    9.0440   20.5200 C   0  0  0  0  0  0  0  0  0  0  0  0
   22.9520   10.7450   20.6340 C   0  0  0  0  0  0  0  0  0  0  0  0
   22.6250   11.3260   19.4020 C   0  0  0  0  0  0  0  0  0  0  0  0
   23.6010   11.5810   18.4480 C   0  0  0  0  0  0  0  0  0  0  0  0
   24.9230   11.2850   18.7210 C   0  0  0  0  0  0  0  0  0  0  0  0
   25.8410   11.5610   17.7920 F   0  0  0  0  0  0  0  0  0  0  0  0
   25.2920   10.7330   19.9340 C   0  0  0  0  0  0  0  0  0  0  0  0
   24.3060   10.4590   20.8800 C   0  0  0  0  0  0  0  0  0  0  0  0
   26.6630   10.4790   20.2410 C   0  0  0  0  0  0  0  0  0  0  0  0
   27.8080   10.3010   20.5530 C   0  0  0  0  0  0  0  0  0  0  0  0
   29.1910   10.1170   20.9760 C   0  0  0  0  0  0  0  0  0  0  0  0
   29.2200    9.9450   22.3240 F   0  0  0  0  0  0  0  0  0  0  0  0
   22.8310    8.9580   24.7810 N   0  0  0  0  0  0  0  0  0  0  0  0
   22.3710   12.9280   24.9720 H   0  0  0  0  0  0  0  0  0  0  0  0
   23.5800   11.7090   25.4720 H   0  0  0  0  0  0  0  0  0  0  0  0
   21.8760   11.4890   25.9110 H   0  0  0  0  0  0  0  0  0  0  0  0
   19.6040   12.1980   21.5870 H   0  0  0  0  0  0  0  0  0  0  0  0
   17.4670   11.7040   20.5510 H   0  0  0  0  0  0  0  0  0  0  0  0
   16.3420    7.7710   20.3080 H   0  0  0  0  0  0  0  0  0  0  0  0
   19.9110    6.9870   19.0520 H   0  0  0  0  0  0  0  0  0  0  0  0
   18.6050    7.6480   18.0980 H   0  0  0  0  0  0  0  0  0  0  0  0
   18.2670    6.7600   19.6260 H   0  0  0  0  0  0  0  0  0  0  0  0
   21.0210    8.2990   20.4910 H   0  0  0  0  0  0  0  0  0  0  0  0
   21.6000   11.6010   19.1640 H   0  0  0  0  0  0  0  0  0  0  0  0
   23.3360   12.0270   17.4940 H   0  0  0  0  0  0  0  0  0  0  0  0
   24.6070   10.0280   21.8340 H   0  0  0  0  0  0  0  0  0  0  0  0
   29.8050   10.9890   20.7350 H   0  0  0  0  0  0  0  0  0  0  0  0
   29.6390    9.2330   20.5150 H   0  0  0  0  0  0  0  0  0  0  0  0
   22.9200    7.9670   24.5960 H   0  0  0  0  0  0  0  0  0  0  0  0
   23.0180    9.2860   25.7180 H   0  0  0  0  0  0  0  0  0  0  0  0
  1  2  1  0  0  0  0
  1 31  1  0  0  0  0
  1 32  1  0  0  0  0
  1 33  1  0  0  0  0
  2  3  1  0  0  0  0
  2  6  1  0  0  0  0
  3  4  2  0  0  0  0
  3 30  1  0  0  0  0
  4  5  1  0  0  0  0
  5  6  1  0  0  0  0
  5  8  1  0  0  0  0
  5 19  1  0  0  0  0
  6  7  2  0  0  0  0
  8  9  2  0  0  0  0
  8 18  1  0  0  0  0
  9 10  1  0  0  0  0
  9 34  1  0  0  0  0
 10 11  2  0  0  0  0
 10 35  1  0  0  0  0
 11 12  1  0  0  0  0
 11 16  1  0  0  0  0
 12 13  1  0  0  0  0
 13 14  1  0  0  0  0
 13 15  1  0  0  0  0
 13 36  1  0  0  0  0
 16 17  1  0  0  0  0
 16 18  2  0  0  0  0
 17 37  1  0  0  0  0
 17 38  1  0  0  0  0
 17 39  1  0  0  0  0
 18 40  1  0  0  0  0
 19 20  2  0  0  0  0
 19 25  1  0  0  0  0
 20 21  1  0  0  0  0
 20 41  1  0  0  0  0
 21 22  2  0  0  0  0
 21 42  1  0  0  0  0
 22 23  1  0  0  0  0
 22 24  1  0  0  0  0
 24 25  2  0  0  0  0
 24 26  1  0  0  0  0
 25 43  1  0  0  0  0
 26 27  3  0  0  0  0
 27 28  1  0  0  0  0
 28 29  1  0  0  0  0
 28 44  1  0  0  0  0
 28 45  1  0  0  0  0
 30 46  1  0  0  0  0
 30 47  1  0  0  0  0
M  END
>  <PARENT_CMPD_ID>
CHEMBL1270631

>  <STANDARD_TYPE>
IC50

>  <RELATION>
=

>  <STANDARD_VALUE>
20

>  <STANDARD_UNITS>
nM

>  <COMPOUND_KEY>
97

>  <PUBMED_ID>
20880704

>  <JOURNAL>
Bioorg. Med. Chem. Lett.

>  <YEAR>
2010

>  <VOLUME>
20

>  <FIRST_PAGE>
6597

>  <Company>
Pfizer

>  <idx>
511

>  <Model>
Valid

>  <target>
7.6989698

>  <des_pred_mlr>
6.5990601

>  <RF_Canvas>
7.5256176

>  <DNN_Canvas>
7.4964318

>  <pred_CoMFA>
7.1385999

>  <pred_COMSIA>
6.5093002

>  <pred_abm5>
7.2790184

>  <pred_ff8>
7.0247488

>  <pred_gau6>
7.2585788

>  <CID>
BACE_511

>  <active>
1

>  <des_class_bayes>
1

>  <maacs_class_bayes>
1

>  <radial_class_bayes>
1

>  <dend_class_bayes>
1

>  <molprint_class_bayes>
1

>  <RF_canvas>
1

>  <DNN_canvas>
1

$$$$
21707077_52
  MOE2015           3D

 58 61  0  0  1  0  0  0  0  0999 V2000
   20.6840   12.9840   18.6770 C   0  0  0  0  0  0  0  0  0  0  0  0
   21.5510   13.9710   18.1770 C   0  0  0  0  0  0  0  0  0  0  0  0
   21.1300   14.7940   17.1310 C   0  0  0  0  0  0  0  0  0  0  0  0
   21.7910   15.5560   16.7450 H   0  0  0  0  0  0  0  0  0  0  0  0
   21.0450   12.1310   19.7240 C   0  0  0  0  0  0  0  0  0  0  0  0
   21.2420   10.7720   19.4700 C   0  0  0  0  0  0  0  0  0  0  0  0
   21.1250   10.3900   18.4660 H   0  0  0  0  0  0  0  0  0  0  0  0
   21.1810   12.6190   21.0270 C   0  0  0  0  0  0  0  0  0  0  0  0
   21.0110   13.6660   21.2330 H   0  0  0  0  0  0  0  0  0  0  0  0
   22.0390   11.3280   24.3910 C   0  0  0  0  0  0  0  0  0  0  0  0
   22.9680   14.1880   18.7410 C   0  0  0  0  0  0  0  0  0  0  0  0
   23.1510   13.4760   19.5460 H   0  0  0  0  0  0  0  0  0  0  0  0
   23.0540   15.2040   19.1270 H   0  0  0  0  0  0  0  0  0  0  0  0
   23.7010   14.0370   17.9490 H   0  0  0  0  0  0  0  0  0  0  0  0
   21.0080   11.4300   26.6850 C   0  0  3  0  0  0  0  0  0  0  0  0
   21.0070   10.3410   26.6490 H   0  0  0  0  0  0  0  0  0  0  0  0
   19.6570   11.9440   26.1690 C   0  0  0  0  0  0  0  0  0  0  0  0
   17.3750   11.3150   25.4590 C   0  0  0  0  0  0  0  0  0  0  0  0
   16.7010   10.6640   26.0150 H   0  0  0  0  0  0  0  0  0  0  0  0
   17.1780   12.3540   25.7240 H   0  0  0  0  0  0  0  0  0  0  0  0
   18.7600   10.9970   25.8830 N   0  0  0  0  0  0  0  0  0  0  0  0
   19.0350   10.0280   25.9580 H   0  0  0  0  0  0  0  0  0  0  0  0
   19.4450   13.1560   26.0680 O   0  0  0  0  0  0  0  0  0  0  0  0
   21.1960   11.9200   28.1360 C   0  0  0  0  0  0  0  0  0  0  0  0
   21.2160   13.0100   28.1450 H   0  0  0  0  0  0  0  0  0  0  0  0
   22.1400   11.5360   28.5230 H   0  0  0  0  0  0  0  0  0  0  0  0
   20.3740   11.5640   28.7580 H   0  0  0  0  0  0  0  0  0  0  0  0
   22.1780   11.9070   25.8040 C   0  0  0  0  0  0  0  0  0  0  0  0
   22.1690   12.9960   25.7510 H   0  0  0  0  0  0  0  0  0  0  0  0
   23.1190   11.5720   26.2410 H   0  0  0  0  0  0  0  0  0  0  0  0
   22.2250    9.9790   24.0560 C   0  0  0  0  0  0  0  0  0  0  0  0
   22.0720    9.5580   22.7890 N   0  0  0  0  0  0  0  0  0  0  0  0
   22.5620    9.0810   24.9770 N   0  0  0  0  0  0  0  0  0  0  0  0
   22.6950    8.1150   24.7150 H   0  0  0  0  0  0  0  0  0  0  0  0
   22.6850    9.3650   25.9380 H   0  0  0  0  0  0  0  0  0  0  0  0
   21.6890   12.2170   23.3710 C   0  0  0  0  0  0  0  0  0  0  0  0
   21.5360   13.2630   23.5940 H   0  0  0  0  0  0  0  0  0  0  0  0
   21.5370   11.7510   22.0630 C   0  0  0  0  0  0  0  0  0  0  0  0
   21.7360   10.3970   21.7980 C   0  0  0  0  0  0  0  0  0  0  0  0
   21.5880    9.9070   20.5040 C   0  0  0  0  0  0  0  0  0  0  0  0
   21.7410    8.8570   20.3020 H   0  0  0  0  0  0  0  0  0  0  0  0
   19.4110   12.8350   18.1190 C   0  0  0  0  0  0  0  0  0  0  0  0
   18.7440   12.0760   18.4990 H   0  0  0  0  0  0  0  0  0  0  0  0
   18.9990   13.6590   17.0770 C   0  0  0  0  0  0  0  0  0  0  0  0
   18.0130   13.5420   16.6520 H   0  0  0  0  0  0  0  0  0  0  0  0
   19.8580   14.6340   16.5830 C   0  0  0  0  0  0  0  0  0  0  0  0
   19.5390   15.2700   15.7710 H   0  0  0  0  0  0  0  0  0  0  0  0
   17.0550   10.7400   21.2000 C   0  0  0  0  0  0  0  0  0  0  0  0
   16.9840   10.5920   20.1260 H   0  0  0  0  0  0  0  0  0  0  0  0
   17.4830   11.9640   21.7100 C   0  0  0  0  0  0  0  0  0  0  0  0
   17.7500   12.7720   21.0360 H   0  0  0  0  0  0  0  0  0  0  0  0
   17.5780   12.1500   23.0890 C   0  0  0  0  0  0  0  0  0  0  0  0
   17.9320   13.1030   23.4760 H   0  0  0  0  0  0  0  0  0  0  0  0
   17.2350   11.1160   23.9740 C   0  0  0  0  0  0  0  0  0  0  0  0
   16.8140    9.8860   23.4500 C   0  0  0  0  0  0  0  0  0  0  0  0
   16.5590    9.0630   24.1130 H   0  0  0  0  0  0  0  0  0  0  0  0
   16.7230    9.7020   22.0690 C   0  0  0  0  0  0  0  0  0  0  0  0
   16.3960    8.7450   21.6710 H   0  0  0  0  0  0  0  0  0  0  0  0
  1  2  2  0  0  0  0
  1  5  1  0  0  0  0
  1 42  1  0  0  0  0
  2  3  1  0  0  0  0
  2 11  1  0  0  0  0
  3  4  1  0  0  0  0
  3 46  2  0  0  0  0
  5  6  1  0  0  0  0
  5  8  2  0  0  0  0
  6  7  1  0  0  0  0
  6 40  2  0  0  0  0
  8  9  1  0  0  0  0
  8 38  1  0  0  0  0
 10 28  1  0  0  0  0
 10 31  2  0  0  0  0
 10 36  1  0  0  0  0
 11 12  1  0  0  0  0
 11 13  1  0  0  0  0
 11 14  1  0  0  0  0
 15 16  1  0  0  0  0
 15 17  1  0  0  0  0
 15 24  1  0  0  0  0
 15 28  1  0  0  0  0
 17 21  1  0  0  0  0
 17 23  2  0  0  0  0
 18 19  1  0  0  0  0
 18 20  1  0  0  0  0
 18 21  1  0  0  0  0
 18 54  1  0  0  0  0
 21 22  1  0  0  0  0
 24 25  1  0  0  0  0
 24 26  1  0  0  0  0
 24 27  1  0  0  0  0
 28 29  1  0  0  0  0
 28 30  1  0  0  0  0
 31 32  1  0  0  0  0
 31 33  1  0  0  0  0
 32 39  2  0  0  0  0
 33 34  1  0  0  0  0
 33 35  1  0  0  0  0
 36 37  1  0  0  0  0
 36 38  2  0  0  0  0
 38 39  1  0  0  0  0
 39 40  1  0  0  0  0
 40 41  1  0  0  0  0
 42 43  1  0  0  0  0
 42 44  2  0  0  0  0
 44 45  1  0  0  0  0
 44 46  1  0  0  0  0
 46 47  1  0  0  0  0
 48 49  1  0  0  0  0
 48 50  1  0  0  0  0
 48 57  2  0  0  0  0
 50 51  1  0  0  0  0
 50 52  2  0  0  0  0
 52 53  1  0  0  0  0
 52 54  1  0  0  0  0
 54 55  2  0  0  0  0
 55 56  1  0  0  0  0
 55 57  1  0  0  0  0
 57 58  1  0  0  0  0
M  END
>  <PARENT_CMPD_ID>
21707077_52

>  <STANDARD_TYPE>
IC50

>  <RELATION>
=

>  <STANDARD_VALUE>
0.02

>  <STANDARD_UNITS>
uM

>  <COMPOUND_KEY>
52

>  <PUBMED_ID>
21707077

>  <JOURNAL>
J.Med.Chem.

>  <YEAR>
2011

>  <VOLUME>
54

>  <FIRST_PAGE>
5836

>  <Company>
Amgen

>  <idx>
512

>  <Model>
Valid

>  <target>
7.6989698

>  <des_pred_mlr>
7.0094099

>  <RF_Canvas>
6.8348927

>  <DNN_Canvas>
7.0778465

>  <pred_CoMFA>
7.5332999

>  <pred_COMSIA>
7.1671

>  <pred_abm5>
7.8176355

>  <pred_ff8>
6.0479217

>  <pred_gau6>
7.3300939

>  <CID>
BACE_512

>  <active>
1

>  <des_class_bayes>
1

>  <maacs_class_bayes>
0

>  <radial_class_bayes>
1

>  <dend_class_bayes>
1

>  <molprint_class_bayes>
1

>  <RF_canvas>
0

>  <DNN_canvas>
0

$$$$
CHEMBL1915976
  MOE2015           3D

 91 94  0  0  1  0  0  0  0  0999 V2000
   25.5440   20.2660   25.3840 C   0  0  0  0  0  0  0  0  0  0  0  0
   25.3300   21.3190   25.4890 H   0  0  0  0  0  0  0  0  0  0  0  0
   25.0640   12.0980   18.3880 C   0  0  0  0  0  0  0  0  0  0  0  0
   25.4760   12.6410   17.5510 H   0  0  0  0  0  0  0  0  0  0  0  0
   24.8550   19.2500   26.2860 C   0  0  0  0  0  0  0  0  0  0  0  0
   24.1510   19.5800   27.0350 H   0  0  0  0  0  0  0  0  0  0  0  0
   26.5380   19.7860   24.3330 C   0  0  0  0  0  0  0  0  0  0  0  0
   27.0290   20.5070   23.6960 H   0  0  0  0  0  0  0  0  0  0  0  0
   23.7700   12.5730   19.0460 C   0  0  0  0  0  0  0  0  0  0  0  0
   23.1420   13.6670   18.5860 F   0  0  0  0  0  0  0  0  0  0  0  0
   25.7760   10.8510   18.9170 C   0  0  0  0  0  0  0  0  0  0  0  0
   26.9120   10.4310   18.3380 F   0  0  0  0  0  0  0  0  0  0  0  0
   17.0770   13.1550   25.3900 C   0  0  0  0  0  0  0  0  0  0  0  0
   16.7080   14.1620   25.2630 H   0  0  0  0  0  0  0  0  0  0  0  0
   25.1630   17.7660   26.1270 C   0  0  0  0  0  0  0  0  0  0  0  0
   24.6780   17.0450   26.7690 H   0  0  0  0  0  0  0  0  0  0  0  0
   26.8480   18.3030   24.1690 C   0  0  0  0  0  0  0  0  0  0  0  0
   27.5550   17.9720   23.4220 H   0  0  0  0  0  0  0  0  0  0  0  0
   23.1920   11.7950   20.2340 C   0  0  0  0  0  0  0  0  0  0  0  0
   22.2780   12.1300   20.7020 H   0  0  0  0  0  0  0  0  0  0  0  0
   25.1970   10.0830   20.1030 C   0  0  0  0  0  0  0  0  0  0  0  0
   25.7070    9.2080   20.4780 H   0  0  0  0  0  0  0  0  0  0  0  0
   18.3620   12.9170   26.1880 C   0  0  0  0  0  0  0  0  0  0  0  0
   18.9010   13.7470   26.6200 H   0  0  0  0  0  0  0  0  0  0  0  0
   16.3070   11.9840   24.7690 C   0  0  0  0  0  0  0  0  0  0  0  0
   15.4020   12.1680   24.2090 H   0  0  0  0  0  0  0  0  0  0  0  0
   18.0990   10.3190   25.7430 C   0  0  0  0  0  0  0  0  0  0  0  0
   18.4660    9.3120   25.8740 H   0  0  0  0  0  0  0  0  0  0  0  0
   26.1510   17.2930   25.0690 C   0  0  0  0  0  0  0  0  0  0  0  0
   23.9030   10.5460   20.7600 C   0  0  0  0  0  0  0  0  0  0  0  0
   18.8690   11.4880   26.3630 C   0  0  0  0  0  0  0  0  0  0  0  0
   16.8220   10.5540   24.9440 C   0  0  0  0  0  0  0  0  0  0  0  0
   27.7350   13.0500   23.1850 C   0  0  0  0  0  0  0  0  0  0  0  0
   24.0040   12.9240   23.7880 C   0  0  0  0  0  0  0  0  0  0  0  0
   27.4330   13.9820   20.9840 C   0  0  0  0  0  0  0  0  0  0  0  0
   27.8040   15.0070   20.9950 H   0  0  0  0  0  0  0  0  0  0  0  0
   27.3830   13.6250   19.9550 H   0  0  0  0  0  0  0  0  0  0  0  0
   26.0390   13.9260   21.6230 C   0  0  0  0  0  0  0  0  0  0  0  0
   25.4140   13.1780   21.1360 H   0  0  0  0  0  0  0  0  0  0  0  0
   25.5470   14.8970   21.5760 H   0  0  0  0  0  0  0  0  0  0  0  0
   28.3710   13.0780   21.8060 C   0  0  3  0  0  0  0  0  0  0  0  0
   29.3890   13.4650   21.7660 H   0  0  0  0  0  0  0  0  0  0  0  0
   28.5520    9.1870   21.9110 C   0  0  0  0  0  0  0  0  0  0  0  0
   28.8720    8.4950   22.6900 H   0  0  0  0  0  0  0  0  0  0  0  0
   16.1710    9.2330   22.9690 C   0  0  0  0  0  0  0  0  0  0  0  0
   27.4780    9.0850   21.7530 H   0  0  0  0  0  0  0  0  0  0  0  0
   15.5970    8.3440   22.7090 H   0  0  0  0  0  0  0  0  0  0  0  0
   17.2060    9.1030   22.6520 H   0  0  0  0  0  0  0  0  0  0  0  0
   29.0790    8.9600   20.9840 H   0  0  0  0  0  0  0  0  0  0  0  0
   15.7440   10.1010   22.4670 H   0  0  0  0  0  0  0  0  0  0  0  0
   26.4490   15.8140   24.9270 C   0  0  0  0  0  0  0  0  0  0  0  0
   26.8900   15.4390   25.8500 H   0  0  0  0  0  0  0  0  0  0  0  0
   27.1450   15.6580   24.1020 H   0  0  0  0  0  0  0  0  0  0  0  0
   23.3370    9.7730   21.9500 C   0  0  0  0  0  0  0  0  0  0  0  0
   24.0900    9.0630   22.2930 H   0  0  0  0  0  0  0  0  0  0  0  0
   22.4490    9.2320   21.6220 H   0  0  0  0  0  0  0  0  0  0  0  0
   20.1520   11.2190   27.1510 C   0  0  0  0  0  0  0  0  0  0  0  0
   19.8920   10.7580   28.1040 H   0  0  0  0  0  0  0  0  0  0  0  0
   20.6600   12.1660   27.3330 H   0  0  0  0  0  0  0  0  0  0  0  0
   28.8690   10.6140   22.3390 C   0  0  0  0  0  0  0  0  0  0  0  0
   30.3550   10.7340   22.5630 C   0  0  0  0  0  0  0  0  0  0  0  0
   30.6700   10.0070   23.3110 H   0  0  0  0  0  0  0  0  0  0  0  0
   30.5900   11.7400   22.9130 H   0  0  0  0  0  0  0  0  0  0  0  0
   30.8810   10.5430   21.6270 H   0  0  0  0  0  0  0  0  0  0  0  0
   25.1510   15.0780   24.6460 C   0  0  0  0  0  0  0  0  0  0  0  0
   28.3430   10.8260   23.2700 H   0  0  0  0  0  0  0  0  0  0  0  0
   24.6020   15.6300   23.8830 H   0  0  0  0  0  0  0  0  0  0  0  0
   24.5670   15.0500   25.5660 H   0  0  0  0  0  0  0  0  0  0  0  0
   21.4960   10.9430   25.1360 C   0  0  0  0  0  0  0  0  0  0  0  0
   20.6140   11.2220   24.5600 H   0  0  0  0  0  0  0  0  0  0  0  0
   22.0850   11.8340   25.3530 H   0  0  0  0  0  0  0  0  0  0  0  0
   25.3450   13.6460   24.1560 C   0  0  3  0  0  0  0  0  0  0  0  0
   25.7640   13.1060   25.0050 H   0  0  0  0  0  0  0  0  0  0  0  0
   28.4460   11.6360   21.2920 C   0  0  0  0  0  0  0  0  0  0  0  0
   27.4210   11.4170   20.9920 H   0  0  0  0  0  0  0  0  0  0  0  0
   29.1960   11.5630   20.5040 H   0  0  0  0  0  0  0  0  0  0  0  0
   22.9510   10.6790   23.1230 C   0  0  3  0  0  0  0  0  0  0  0  0
   22.1400   11.3150   22.7680 H   0  0  0  0  0  0  0  0  0  0  0  0
   22.3370    9.9650   24.3300 C   0  0  3  0  0  0  0  0  0  0  0  0
   23.1530    9.5780   24.9400 H   0  0  0  0  0  0  0  0  0  0  0  0
   26.3360   13.5410   23.0350 N   0  0  0  0  0  0  0  0  0  0  0  0
   24.1020   11.5620   23.5080 N   0  0  0  0  0  0  0  0  0  0  0  0
   25.0290   11.1480   23.5480 H   0  0  0  0  0  0  0  0  0  0  0  0
   21.0740   10.3090   26.4090 N   0  3  0  0  0  0  0  0  0  0  0  0
   20.5980    9.4410   26.2090 H   0  0  0  0  0  0  0  0  0  0  0  0
   21.8890   10.1230   26.9760 H   0  0  0  0  0  0  0  0  0  0  0  0
   28.3970   12.5840   24.3550 O   0  0  0  0  0  0  0  0  0  0  0  0
   22.9140   13.4950   23.8260 O   0  0  0  0  0  0  0  0  0  0  0  0
   21.5090    8.8770   23.9180 O   0  0  0  0  0  0  0  0  0  0  0  0
   20.7990    9.2390   23.3830 H   0  0  0  0  0  0  0  0  0  0  0  0
   16.1270    9.4320   24.3850 O   0  0  0  0  0  0  0  0  0  0  0  0
  1  2  1  0  0  0  0
  1  5  2  0  0  0  0
  1  7  1  0  0  0  0
  3  4  1  0  0  0  0
  3  9  2  0  0  0  0
  3 11  1  0  0  0  0
  5  6  1  0  0  0  0
  5 15  1  0  0  0  0
  7  8  1  0  0  0  0
  7 17  2  0  0  0  0
  9 10  1  0  0  0  0
  9 19  1  0  0  0  0
 11 12  1  0  0  0  0
 11 21  2  0  0  0  0
 13 14  1  0  0  0  0
 13 23  2  0  0  0  0
 13 25  1  0  0  0  0
 15 16  1  0  0  0  0
 15 29  2  0  0  0  0
 17 18  1  0  0  0  0
 17 29  1  0  0  0  0
 19 20  1  0  0  0  0
 19 30  2  0  0  0  0
 21 22  1  0  0  0  0
 21 30  1  0  0  0  0
 23 24  1  0  0  0  0
 23 31  1  0  0  0  0
 25 26  1  0  0  0  0
 25 32  2  0  0  0  0
 27 28  1  0  0  0  0
 27 31  2  0  0  0  0
 27 32  1  0  0  0  0
 29 51  1  0  0  0  0
 30 54  1  0  0  0  0
 31 57  1  0  0  0  0
 32 91  1  0  0  0  0
 33 41  1  0  0  0  0
 33 81  1  0  0  0  0
 33 87  2  0  0  0  0
 34 72  1  0  0  0  0
 34 82  1  0  0  0  0
 34 88  2  0  0  0  0
 35 36  1  0  0  0  0
 35 37  1  0  0  0  0
 35 38  1  0  0  0  0
 35 41  1  0  0  0  0
 38 39  1  0  0  0  0
 38 40  1  0  0  0  0
 38 81  1  0  0  0  0
 41 42  1  0  0  0  0
 41 74  1  0  0  0  0
 43 44  1  0  0  0  0
 43 46  1  0  0  0  0
 43 49  1  0  0  0  0
 43 60  1  0  0  0  0
 45 47  1  0  0  0  0
 45 48  1  0  0  0  0
 45 50  1  0  0  0  0
 45 91  1  0  0  0  0
 51 52  1  0  0  0  0
 51 53  1  0  0  0  0
 51 65  1  0  0  0  0
 54 55  1  0  0  0  0
 54 56  1  0  0  0  0
 54 77  1  0  0  0  0
 57 58  1  0  0  0  0
 57 59  1  0  0  0  0
 57 84  1  0  0  0  0
 60 61  1  0  0  0  0
 60 66  1  0  0  0  0
 60 74  1  0  0  0  0
 61 62  1  0  0  0  0
 61 63  1  0  0  0  0
 61 64  1  0  0  0  0
 65 67  1  0  0  0  0
 65 68  1  0  0  0  0
 65 72  1  0  0  0  0
 69 70  1  0  0  0  0
 69 71  1  0  0  0  0
 69 79  1  0  0  0  0
 69 84  1  0  0  0  0
 72 73  1  0  0  0  0
 72 81  1  0  0  0  0
 74 75  1  0  0  0  0
 74 76  1  0  0  0  0
 77 78  1  0  0  0  0
 77 79  1  0  0  0  0
 77 82  1  0  0  0  0
 79 80  1  0  0  0  0
 79 89  1  0  0  0  0
 82 83  1  0  0  0  0
 84 85  1  0  0  0  0
 84 86  1  0  0  0  0
 89 90  1  0  0  0  0
M  CHG  1  84   1
M  END
>  <PARENT_CMPD_ID>
CHEMBL1915976

>  <STANDARD_TYPE>
IC50

>  <RELATION>
=

>  <STANDARD_VALUE>
20

>  <STANDARD_UNITS>
nM

>  <COMPOUND_KEY>
1e

>  <PUBMED_ID>
21782431

>  <JOURNAL>
Bioorg.Med.Chem.Lett.

>  <YEAR>
2011

>  <VOLUME>
21

>  <FIRST_PAGE>
6916

>  <Company>
BMS

>  <idx>
513

>  <Model>
Valid

>  <target>
7.6989698

>  <des_pred_mlr>
7.6560798

>  <RF_Canvas>
7.84763

>  <DNN_Canvas>
7.6690145

>  <pred_CoMFA>
8.2209997

>  <pred_COMSIA>
8.5588999

>  <pred_abm5>
8.3611565

>  <pred_ff8>
7.4511523

>  <pred_gau6>
8.2269936

>  <CID>
BACE_513

>  <active>
1

>  <des_class_bayes>
1

>  <maacs_class_bayes>
1

>  <radial_class_bayes>
0

>  <dend_class_bayes>
1

>  <molprint_class_bayes>
1

>  <RF_canvas>
1

>  <DNN_canvas>
1

$$$$
CHEMBL1824140
  MOE2015           3D

 58 61  0  0  1  0  0  0  0  0999 V2000
   16.6230   10.9890   21.4690 C   0  0  0  0  0  0  0  0  0  0  0  0
   16.5480    9.9090   21.3440 H   0  0  0  0  0  0  0  0  0  0  0  0
   16.9540   11.2150   22.4830 H   0  0  0  0  0  0  0  0  0  0  0  0
   15.2740   11.6190   21.2290 C   0  0  0  0  0  0  0  0  0  0  0  0
   14.2780   11.0670   22.2180 C   0  0  0  0  0  0  0  0  0  0  0  0
   13.3030   11.5220   22.0440 H   0  0  0  0  0  0  0  0  0  0  0  0
   14.6090   11.2930   23.2310 H   0  0  0  0  0  0  0  0  0  0  0  0
   14.2030    9.9870   22.0930 H   0  0  0  0  0  0  0  0  0  0  0  0
   14.8160   11.3060   19.8260 C   0  0  0  0  0  0  0  0  0  0  0  0
   13.8410   11.7610   19.6530 H   0  0  0  0  0  0  0  0  0  0  0  0
   14.7400   10.2260   19.7010 H   0  0  0  0  0  0  0  0  0  0  0  0
   15.5360   11.7050   19.1120 H   0  0  0  0  0  0  0  0  0  0  0  0
   15.3790   13.1130   21.4020 C   0  0  0  0  0  0  0  0  0  0  0  0
   14.4040   13.5680   21.2280 H   0  0  0  0  0  0  0  0  0  0  0  0
   16.0990   13.5120   20.6870 H   0  0  0  0  0  0  0  0  0  0  0  0
   15.7100   13.3390   22.4150 H   0  0  0  0  0  0  0  0  0  0  0  0
   18.9020   10.9230   20.7310 N   0  0  0  0  0  0  0  0  0  0  0  0
   22.2720   12.9270   22.7600 O   0  0  0  0  0  0  0  0  0  0  0  0
   17.6230   11.5440   20.4750 C   0  0  0  0  0  0  0  0  0  0  0  0
   17.7050   12.6240   20.5980 H   0  0  0  0  0  0  0  0  0  0  0  0
   17.2990   11.3170   19.4590 H   0  0  0  0  0  0  0  0  0  0  0  0
   19.1230    9.6740   20.3070 N   0  0  0  0  0  0  0  0  0  0  0  0
   19.9550   11.4720   21.3840 C   0  0  0  0  0  0  0  0  0  0  0  0
   20.0090   12.4590   21.8180 H   0  0  0  0  0  0  0  0  0  0  0  0
   22.7900   11.1750   24.1580 N   0  0  0  0  0  0  0  0  0  0  0  0
   20.9380   10.5140   21.3800 C   0  0  0  0  0  0  0  0  0  0  0  0
   22.4690    9.3930   22.8380 N   0  0  0  0  0  0  0  0  0  0  0  0
   20.3610    9.4240   20.7010 C   0  0  0  0  0  0  0  0  0  0  0  0
   20.8710    8.4890   20.5220 H   0  0  0  0  0  0  0  0  0  0  0  0
   22.8120    9.0120   25.0300 N   0  0  0  0  0  0  0  0  0  0  0  0
   22.4800    8.0650   24.9150 H   0  0  0  0  0  0  0  0  0  0  0  0
   23.1100    9.3350   25.9390 H   0  0  0  0  0  0  0  0  0  0  0  0
   22.2970   10.5960   21.9830 C   0  0  3  0  0  0  0  0  0  0  0  0
   28.9400    9.6760   21.8070 N   0  0  0  0  0  0  0  0  0  0  0  0
   22.4290   11.7400   22.9820 C   0  0  0  0  0  0  0  0  0  0  0  0
   29.3350   11.8070   20.8130 N   0  0  0  0  0  0  0  0  0  0  0  0
   22.8560    9.8370   23.9800 C   0  0  0  0  0  0  0  0  0  0  0  0
   23.0170   11.9520   25.3510 C   0  0  0  0  0  0  0  0  0  0  0  0
   22.8760   13.0100   25.1280 H   0  0  0  0  0  0  0  0  0  0  0  0
   24.0350   11.7870   25.7040 H   0  0  0  0  0  0  0  0  0  0  0  0
   22.3110   11.6460   26.1230 H   0  0  0  0  0  0  0  0  0  0  0  0
   23.3350   10.8070   20.8720 C   0  0  0  0  0  0  0  0  0  0  0  0
   22.9920   11.0920   19.5340 C   0  0  0  0  0  0  0  0  0  0  0  0
   21.9520   11.1680   19.2540 H   0  0  0  0  0  0  0  0  0  0  0  0
   23.9790   11.2760   18.5700 C   0  0  0  0  0  0  0  0  0  0  0  0
   23.7000   11.4870   17.5480 H   0  0  0  0  0  0  0  0  0  0  0  0
   25.3240   11.1890   18.9180 C   0  0  0  0  0  0  0  0  0  0  0  0
   26.0810   11.3390   18.1620 H   0  0  0  0  0  0  0  0  0  0  0  0
   25.7110   10.9080   20.2410 C   0  0  0  0  0  0  0  0  0  0  0  0
   24.7010   10.7290   21.1920 C   0  0  0  0  0  0  0  0  0  0  0  0
   24.9830   10.5220   22.2140 H   0  0  0  0  0  0  0  0  0  0  0  0
   27.1120   10.8280   20.6810 C   0  0  0  0  0  0  0  0  0  0  0  0
   27.6460    9.7590   21.3920 C   0  0  0  0  0  0  0  0  0  0  0  0
   26.9880    8.9370   21.6320 H   0  0  0  0  0  0  0  0  0  0  0  0
   29.7290   10.7180   21.4930 C   0  0  0  0  0  0  0  0  0  0  0  0
   30.7600   10.6760   21.8120 H   0  0  0  0  0  0  0  0  0  0  0  0
   28.0330   11.8330   20.4260 C   0  0  0  0  0  0  0  0  0  0  0  0
   27.6900   12.6990   19.8800 H   0  0  0  0  0  0  0  0  0  0  0  0
  1  2  1  0  0  0  0
  1  3  1  0  0  0  0
  1  4  1  0  0  0  0
  1 19  1  0  0  0  0
  4  5  1  0  0  0  0
  4  9  1  0  0  0  0
  4 13  1  0  0  0  0
  5  6  1  0  0  0  0
  5  7  1  0  0  0  0
  5  8  1  0  0  0  0
  9 10  1  0  0  0  0
  9 11  1  0  0  0  0
  9 12  1  0  0  0  0
 13 14  1  0  0  0  0
 13 15  1  0  0  0  0
 13 16  1  0  0  0  0
 17 19  1  0  0  0  0
 17 22  1  0  0  0  0
 17 23  1  0  0  0  0
 18 35  2  0  0  0  0
 19 20  1  0  0  0  0
 19 21  1  0  0  0  0
 22 28  2  0  0  0  0
 23 24  1  0  0  0  0
 23 26  2  0  0  0  0
 25 35  1  0  0  0  0
 25 37  1  0  0  0  0
 25 38  1  0  0  0  0
 26 28  1  0  0  0  0
 26 33  1  0  0  0  0
 27 33  1  0  0  0  0
 27 37  2  0  0  0  0
 28 29  1  0  0  0  0
 30 31  1  0  0  0  0
 30 32  1  0  0  0  0
 30 37  1  0  0  0  0
 33 35  1  0  0  0  0
 33 42  1  0  0  0  0
 34 53  2  0  0  0  0
 34 55  1  0  0  0  0
 36 55  2  0  0  0  0
 36 57  1  0  0  0  0
 38 39  1  0  0  0  0
 38 40  1  0  0  0  0
 38 41  1  0  0  0  0
 42 43  1  0  0  0  0
 42 50  2  0  0  0  0
 43 44  1  0  0  0  0
 43 45  2  0  0  0  0
 45 46  1  0  0  0  0
 45 47  1  0  0  0  0
 47 48  1  0  0  0  0
 47 49  2  0  0  0  0
 49 50  1  0  0  0  0
 49 52  1  0  0  0  0
 50 51  1  0  0  0  0
 52 53  1  0  0  0  0
 52 57  2  0  0  0  0
 53 54  1  0  0  0  0
 55 56  1  0  0  0  0
 57 58  1  0  0  0  0
M  END
>  <PARENT_CMPD_ID>
CHEMBL1824140

>  <STANDARD_TYPE>
IC50

>  <RELATION>
=

>  <STANDARD_VALUE>
20

>  <STANDARD_UNITS>
nM

>  <COMPOUND_KEY>
34

>  <PUBMED_ID>
21835615

>  <JOURNAL>
Bioorg.Med.Chem.Lett.

>  <YEAR>
2011

>  <VOLUME>
21

>  <FIRST_PAGE>
5164

>  <Company>
Pfizer

>  <idx>
514

>  <Model>
Valid

>  <target>
7.6989698

>  <des_pred_mlr>
6.6599598

>  <RF_Canvas>
7.2138467

>  <DNN_Canvas>
7.6882997

>  <pred_CoMFA>
8.5839005

>  <pred_COMSIA>
7.4471998

>  <pred_abm5>
7.7110934

>  <pred_ff8>
5.9028616

>  <pred_gau6>
7.6109076

>  <CID>
BACE_514

>  <active>
1

>  <des_class_bayes>
0

>  <maacs_class_bayes>
1

>  <radial_class_bayes>
0

>  <dend_class_bayes>
1

>  <molprint_class_bayes>
1

>  <RF_canvas>
1

>  <DNN_canvas>
1

$$$$
CHEMBL1824143
  MOE2015           3D

 62 66  0  0  1  0  0  0  0  0999 V2000
   16.4990   10.9050   21.2920 C   0  0  0  0  0  0  0  0  0  0  0  0
   16.4790    9.8310   21.0650 H   0  0  0  0  0  0  0  0  0  0  0  0
   16.7250   10.9850   22.3640 H   0  0  0  0  0  0  0  0  0  0  0  0
   18.9020   10.9230   20.7310 N   0  0  0  0  0  0  0  0  0  0  0  0
   22.2720   12.9270   22.7600 O   0  0  0  0  0  0  0  0  0  0  0  0
   17.6240   11.5700   20.4810 C   0  0  0  0  0  0  0  0  0  0  0  0
   17.7300   12.6070   20.8260 H   0  0  0  0  0  0  0  0  0  0  0  0
   17.3850   11.5050   19.4200 H   0  0  0  0  0  0  0  0  0  0  0  0
   19.1230    9.6740   20.3070 N   0  0  0  0  0  0  0  0  0  0  0  0
   19.9550   11.4720   21.3840 C   0  0  0  0  0  0  0  0  0  0  0  0
   20.0090   12.4590   21.8180 H   0  0  0  0  0  0  0  0  0  0  0  0
   22.7900   11.1750   24.1580 N   0  0  0  0  0  0  0  0  0  0  0  0
   20.9380   10.5140   21.3800 C   0  0  0  0  0  0  0  0  0  0  0  0
   22.4690    9.3930   22.8380 N   0  0  0  0  0  0  0  0  0  0  0  0
   20.3610    9.4240   20.7010 C   0  0  0  0  0  0  0  0  0  0  0  0
   20.8710    8.4890   20.5220 H   0  0  0  0  0  0  0  0  0  0  0  0
   22.8120    9.0120   25.0300 N   0  0  0  0  0  0  0  0  0  0  0  0
   22.4800    8.0650   24.9150 H   0  0  0  0  0  0  0  0  0  0  0  0
   23.1100    9.3350   25.9390 H   0  0  0  0  0  0  0  0  0  0  0  0
   22.2970   10.5960   21.9830 C   0  0  3  0  0  0  0  0  0  0  0  0
   28.9400    9.6760   21.8070 N   0  0  0  0  0  0  0  0  0  0  0  0
   22.4290   11.7400   22.9820 C   0  0  0  0  0  0  0  0  0  0  0  0
   29.3350   11.8070   20.8130 N   0  0  0  0  0  0  0  0  0  0  0  0
   22.8560    9.8370   23.9800 C   0  0  0  0  0  0  0  0  0  0  0  0
   23.0170   11.9520   25.3510 C   0  0  0  0  0  0  0  0  0  0  0  0
   22.8760   13.0100   25.1280 H   0  0  0  0  0  0  0  0  0  0  0  0
   24.0350   11.7870   25.7040 H   0  0  0  0  0  0  0  0  0  0  0  0
   22.3110   11.6460   26.1230 H   0  0  0  0  0  0  0  0  0  0  0  0
   23.3350   10.8070   20.8720 C   0  0  0  0  0  0  0  0  0  0  0  0
   22.9920   11.0920   19.5340 C   0  0  0  0  0  0  0  0  0  0  0  0
   21.9520   11.1680   19.2540 H   0  0  0  0  0  0  0  0  0  0  0  0
   23.9790   11.2760   18.5700 C   0  0  0  0  0  0  0  0  0  0  0  0
   23.7000   11.4870   17.5480 H   0  0  0  0  0  0  0  0  0  0  0  0
   25.3240   11.1890   18.9180 C   0  0  0  0  0  0  0  0  0  0  0  0
   26.0810   11.3390   18.1620 H   0  0  0  0  0  0  0  0  0  0  0  0
   25.7110   10.9080   20.2410 C   0  0  0  0  0  0  0  0  0  0  0  0
   24.7010   10.7290   21.1920 C   0  0  0  0  0  0  0  0  0  0  0  0
   24.9830   10.5220   22.2140 H   0  0  0  0  0  0  0  0  0  0  0  0
   27.1120   10.8280   20.6810 C   0  0  0  0  0  0  0  0  0  0  0  0
   27.6460    9.7590   21.3920 C   0  0  0  0  0  0  0  0  0  0  0  0
   26.9880    8.9370   21.6320 H   0  0  0  0  0  0  0  0  0  0  0  0
   29.7290   10.7180   21.4930 C   0  0  0  0  0  0  0  0  0  0  0  0
   30.7600   10.6760   21.8120 H   0  0  0  0  0  0  0  0  0  0  0  0
   28.0330   11.8330   20.4260 C   0  0  0  0  0  0  0  0  0  0  0  0
   27.6900   12.6990   19.8800 H   0  0  0  0  0  0  0  0  0  0  0  0
   12.5410   12.6900   21.9180 C   0  0  0  0  0  0  0  0  0  0  0  0
   11.5410   13.0760   21.6910 H   0  0  0  0  0  0  0  0  0  0  0  0
   12.6800   12.7790   23.0020 H   0  0  0  0  0  0  0  0  0  0  0  0
   13.5910   13.5280   21.1990 C   0  0  0  0  0  0  0  0  0  0  0  0
   13.5450   14.5630   21.5590 H   0  0  0  0  0  0  0  0  0  0  0  0
   13.3660   13.5540   20.1260 H   0  0  0  0  0  0  0  0  0  0  0  0
   15.0000   12.9760   21.4080 C   0  0  0  0  0  0  0  0  0  0  0  0
   15.2830   13.0950   22.4610 H   0  0  0  0  0  0  0  0  0  0  0  0
   15.6970   13.5830   20.8200 H   0  0  0  0  0  0  0  0  0  0  0  0
   15.1050   11.4960   21.0050 C   0  0  0  0  0  0  0  0  0  0  0  0
   14.9170   11.4200   19.9250 H   0  0  0  0  0  0  0  0  0  0  0  0
   14.0320   10.6650   21.7310 C   0  0  0  0  0  0  0  0  0  0  0  0
   14.2470   10.6410   22.8070 H   0  0  0  0  0  0  0  0  0  0  0  0
   14.0630    9.6270   21.3790 H   0  0  0  0  0  0  0  0  0  0  0  0
   12.6290   11.2230   21.5130 C   0  0  0  0  0  0  0  0  0  0  0  0
   11.9050   10.6370   22.0910 H   0  0  0  0  0  0  0  0  0  0  0  0
   12.3540   11.1170   20.4560 H   0  0  0  0  0  0  0  0  0  0  0  0
  1  2  1  0  0  0  0
  1  3  1  0  0  0  0
  1  6  1  0  0  0  0
  1 55  1  0  0  0  0
  4  6  1  0  0  0  0
  4  9  1  0  0  0  0
  4 10  1  0  0  0  0
  5 22  2  0  0  0  0
  6  7  1  0  0  0  0
  6  8  1  0  0  0  0
  9 15  2  0  0  0  0
 10 11  1  0  0  0  0
 10 13  2  0  0  0  0
 12 22  1  0  0  0  0
 12 24  1  0  0  0  0
 12 25  1  0  0  0  0
 13 15  1  0  0  0  0
 13 20  1  0  0  0  0
 14 20  1  0  0  0  0
 14 24  2  0  0  0  0
 15 16  1  0  0  0  0
 17 18  1  0  0  0  0
 17 19  1  0  0  0  0
 17 24  1  0  0  0  0
 20 22  1  0  0  0  0
 20 29  1  0  0  0  0
 21 40  2  0  0  0  0
 21 42  1  0  0  0  0
 23 42  2  0  0  0  0
 23 44  1  0  0  0  0
 25 26  1  0  0  0  0
 25 27  1  0  0  0  0
 25 28  1  0  0  0  0
 29 30  1  0  0  0  0
 29 37  2  0  0  0  0
 30 31  1  0  0  0  0
 30 32  2  0  0  0  0
 32 33  1  0  0  0  0
 32 34  1  0  0  0  0
 34 35  1  0  0  0  0
 34 36  2  0  0  0  0
 36 37  1  0  0  0  0
 36 39  1  0  0  0  0
 37 38  1  0  0  0  0
 39 40  1  0  0  0  0
 39 44  2  0  0  0  0
 40 41  1  0  0  0  0
 42 43  1  0  0  0  0
 44 45  1  0  0  0  0
 46 47  1  0  0  0  0
 46 48  1  0  0  0  0
 46 49  1  0  0  0  0
 46 60  1  0  0  0  0
 49 50  1  0  0  0  0
 49 51  1  0  0  0  0
 49 52  1  0  0  0  0
 52 53  1  0  0  0  0
 52 54  1  0  0  0  0
 52 55  1  0  0  0  0
 55 56  1  0  0  0  0
 55 57  1  0  0  0  0
 57 58  1  0  0  0  0
 57 59  1  0  0  0  0
 57 60  1  0  0  0  0
 60 61  1  0  0  0  0
 60 62  1  0  0  0  0
M  END
>  <PARENT_CMPD_ID>
CHEMBL1824143

>  <STANDARD_TYPE>
IC50

>  <RELATION>
=

>  <STANDARD_VALUE>
20

>  <STANDARD_UNITS>
nM

>  <COMPOUND_KEY>
37

>  <PUBMED_ID>
21835615

>  <JOURNAL>
Bioorg.Med.Chem.Lett.

>  <YEAR>
2011

>  <VOLUME>
21

>  <FIRST_PAGE>
5164

>  <Company>
Pfizer

>  <idx>
515

>  <Model>
Valid

>  <target>
7.6989698

>  <des_pred_mlr>
6.75669

>  <RF_Canvas>
7.0009689

>  <DNN_Canvas>
7.0897036

>  <pred_CoMFA>
8.3663998

>  <pred_COMSIA>
7.1581998

>  <pred_abm5>
7.5187302

>  <pred_ff8>
5.7954197

>  <pred_gau6>
7.4868383

>  <CID>
BACE_515

>  <active>
1

>  <des_class_bayes>
1

>  <maacs_class_bayes>
1

>  <radial_class_bayes>
0

>  <dend_class_bayes>
1

>  <molprint_class_bayes>
1

>  <RF_canvas>
1

>  <DNN_canvas>
1

$$$$
CHEMBL1824340
  MOE2015           3D

 53 56  0  0  1  0  0  0  0  0999 V2000
   16.6230   10.9890   21.4690 C   0  0  0  0  0  0  0  0  0  0  0  0
   15.2740   11.6190   21.2280 C   0  0  0  0  0  0  0  0  0  0  0  0
   14.5540   11.2200   21.9430 H   0  0  0  0  0  0  0  0  0  0  0  0
   14.9430   11.3920   20.2150 H   0  0  0  0  0  0  0  0  0  0  0  0
   15.3500   12.6990   21.3530 H   0  0  0  0  0  0  0  0  0  0  0  0
   16.9540   11.2150   22.4820 H   0  0  0  0  0  0  0  0  0  0  0  0
   16.5190    9.4950   21.2960 C   0  0  0  0  0  0  0  0  0  0  0  0
   15.8000    9.0950   22.0110 H   0  0  0  0  0  0  0  0  0  0  0  0
   17.4950    9.0400   21.4700 H   0  0  0  0  0  0  0  0  0  0  0  0
   16.1880    9.2680   20.2830 H   0  0  0  0  0  0  0  0  0  0  0  0
   18.9020   10.9230   20.7310 N   0  0  0  0  0  0  0  0  0  0  0  0
   22.2720   12.9270   22.7600 O   0  0  0  0  0  0  0  0  0  0  0  0
   17.6230   11.5440   20.4750 C   0  0  0  0  0  0  0  0  0  0  0  0
   17.7050   12.6240   20.5980 H   0  0  0  0  0  0  0  0  0  0  0  0
   17.2990   11.3170   19.4590 H   0  0  0  0  0  0  0  0  0  0  0  0
   19.1230    9.6740   20.3070 N   0  0  0  0  0  0  0  0  0  0  0  0
   19.9550   11.4720   21.3840 C   0  0  0  0  0  0  0  0  0  0  0  0
   20.0090   12.4590   21.8180 H   0  0  0  0  0  0  0  0  0  0  0  0
   22.7900   11.1750   24.1580 N   0  0  0  0  0  0  0  0  0  0  0  0
   20.9380   10.5140   21.3800 C   0  0  0  0  0  0  0  0  0  0  0  0
   22.4690    9.3930   22.8380 N   0  0  0  0  0  0  0  0  0  0  0  0
   20.3610    9.4240   20.7010 C   0  0  0  0  0  0  0  0  0  0  0  0
   20.8710    8.4890   20.5220 H   0  0  0  0  0  0  0  0  0  0  0  0
   22.8120    9.0120   25.0300 N   0  0  0  0  0  0  0  0  0  0  0  0
   22.4800    8.0650   24.9150 H   0  0  0  0  0  0  0  0  0  0  0  0
   23.1100    9.3350   25.9390 H   0  0  0  0  0  0  0  0  0  0  0  0
   22.2970   10.5960   21.9830 C   0  0  3  0  0  0  0  0  0  0  0  0
   28.9400    9.6760   21.8070 N   0  0  0  0  0  0  0  0  0  0  0  0
   22.4290   11.7400   22.9820 C   0  0  0  0  0  0  0  0  0  0  0  0
   29.3350   11.8070   20.8130 C   0  0  0  0  0  0  0  0  0  0  0  0
   30.0140   12.6160   20.5870 H   0  0  0  0  0  0  0  0  0  0  0  0
   22.8560    9.8370   23.9800 C   0  0  0  0  0  0  0  0  0  0  0  0
   23.0170   11.9520   25.3510 C   0  0  0  0  0  0  0  0  0  0  0  0
   22.8760   13.0100   25.1280 H   0  0  0  0  0  0  0  0  0  0  0  0
   24.0350   11.7870   25.7040 H   0  0  0  0  0  0  0  0  0  0  0  0
   22.3110   11.6460   26.1230 H   0  0  0  0  0  0  0  0  0  0  0  0
   23.3350   10.8070   20.8720 C   0  0  0  0  0  0  0  0  0  0  0  0
   22.9920   11.0920   19.5340 C   0  0  0  0  0  0  0  0  0  0  0  0
   21.9520   11.1680   19.2540 H   0  0  0  0  0  0  0  0  0  0  0  0
   23.9790   11.2760   18.5700 C   0  0  0  0  0  0  0  0  0  0  0  0
   23.7000   11.4870   17.5480 H   0  0  0  0  0  0  0  0  0  0  0  0
   25.3240   11.1890   18.9180 C   0  0  0  0  0  0  0  0  0  0  0  0
   26.0810   11.3390   18.1620 H   0  0  0  0  0  0  0  0  0  0  0  0
   25.7110   10.9080   20.2410 C   0  0  0  0  0  0  0  0  0  0  0  0
   24.7010   10.7290   21.1920 C   0  0  0  0  0  0  0  0  0  0  0  0
   24.9830   10.5220   22.2140 H   0  0  0  0  0  0  0  0  0  0  0  0
   27.1120   10.8280   20.6810 C   0  0  0  0  0  0  0  0  0  0  0  0
   27.6460    9.7590   21.3920 C   0  0  0  0  0  0  0  0  0  0  0  0
   26.8280    8.7380   21.6900 F   0  0  0  0  0  0  0  0  0  0  0  0
   29.7290   10.7180   21.4930 C   0  0  0  0  0  0  0  0  0  0  0  0
   30.7600   10.6760   21.8120 H   0  0  0  0  0  0  0  0  0  0  0  0
   28.0330   11.8330   20.4260 C   0  0  0  0  0  0  0  0  0  0  0  0
   27.6900   12.6990   19.8800 H   0  0  0  0  0  0  0  0  0  0  0  0
  1  2  1  0  0  0  0
  1  6  1  0  0  0  0
  1  7  1  0  0  0  0
  1 13  1  0  0  0  0
  2  3  1  0  0  0  0
  2  4  1  0  0  0  0
  2  5  1  0  0  0  0
  7  8  1  0  0  0  0
  7  9  1  0  0  0  0
  7 10  1  0  0  0  0
 11 13  1  0  0  0  0
 11 16  1  0  0  0  0
 11 17  1  0  0  0  0
 12 29  2  0  0  0  0
 13 14  1  0  0  0  0
 13 15  1  0  0  0  0
 16 22  2  0  0  0  0
 17 18  1  0  0  0  0
 17 20  2  0  0  0  0
 19 29  1  0  0  0  0
 19 32  1  0  0  0  0
 19 33  1  0  0  0  0
 20 22  1  0  0  0  0
 20 27  1  0  0  0  0
 21 27  1  0  0  0  0
 21 32  2  0  0  0  0
 22 23  1  0  0  0  0
 24 25  1  0  0  0  0
 24 26  1  0  0  0  0
 24 32  1  0  0  0  0
 27 29  1  0  0  0  0
 27 37  1  0  0  0  0
 28 48  2  0  0  0  0
 28 50  1  0  0  0  0
 30 31  1  0  0  0  0
 30 50  2  0  0  0  0
 30 52  1  0  0  0  0
 33 34  1  0  0  0  0
 33 35  1  0  0  0  0
 33 36  1  0  0  0  0
 37 38  1  0  0  0  0
 37 45  2  0  0  0  0
 38 39  1  0  0  0  0
 38 40  2  0  0  0  0
 40 41  1  0  0  0  0
 40 42  1  0  0  0  0
 42 43  1  0  0  0  0
 42 44  2  0  0  0  0
 44 45  1  0  0  0  0
 44 47  1  0  0  0  0
 45 46  1  0  0  0  0
 47 48  1  0  0  0  0
 47 52  2  0  0  0  0
 48 49  1  0  0  0  0
 50 51  1  0  0  0  0
 52 53  1  0  0  0  0
M  END
>  <PARENT_CMPD_ID>
CHEMBL1824340

>  <STANDARD_TYPE>
IC50

>  <RELATION>
=

>  <STANDARD_VALUE>
20

>  <STANDARD_UNITS>
nM

>  <COMPOUND_KEY>
43

>  <PUBMED_ID>
21835615

>  <JOURNAL>
Bioorg.Med.Chem.Lett.

>  <YEAR>
2011

>  <VOLUME>
21

>  <FIRST_PAGE>
5164

>  <Company>
Pfizer

>  <idx>
516

>  <Model>
Valid

>  <target>
7.6989698

>  <des_pred_mlr>
6.3599601

>  <RF_Canvas>
7.2211819

>  <DNN_Canvas>
7.1370792

>  <pred_CoMFA>
8.3306999

>  <pred_COMSIA>
7.1725998

>  <pred_abm5>
7.6291537

>  <pred_ff8>
6.3978877

>  <pred_gau6>
7.472208

>  <CID>
BACE_516

>  <active>
1

>  <des_class_bayes>
0

>  <maacs_class_bayes>
1

>  <radial_class_bayes>
0

>  <dend_class_bayes>
1

>  <molprint_class_bayes>
1

>  <RF_canvas>
1

>  <DNN_canvas>
1

$$$$
CHEMBL1824342
  MOE2015           3D

 59 62  0  0  1  0  0  0  0  0999 V2000
   16.6230   10.9890   21.4690 C   0  0  0  0  0  0  0  0  0  0  0  0
   15.2740   11.6190   21.2280 C   0  0  0  0  0  0  0  0  0  0  0  0
   14.2780   11.0670   22.2170 C   0  0  0  0  0  0  0  0  0  0  0  0
   13.3030   11.5220   22.0430 H   0  0  0  0  0  0  0  0  0  0  0  0
   14.6090   11.2930   23.2310 H   0  0  0  0  0  0  0  0  0  0  0  0
   14.2030    9.9870   22.0920 H   0  0  0  0  0  0  0  0  0  0  0  0
   14.8160   11.3050   19.8260 C   0  0  0  0  0  0  0  0  0  0  0  0
   13.8410   11.7600   19.6520 H   0  0  0  0  0  0  0  0  0  0  0  0
   14.7410   10.2250   19.7010 H   0  0  0  0  0  0  0  0  0  0  0  0
   15.5360   11.7040   19.1110 H   0  0  0  0  0  0  0  0  0  0  0  0
   15.3790   13.1130   21.4010 C   0  0  0  0  0  0  0  0  0  0  0  0
   14.4040   13.5680   21.2270 H   0  0  0  0  0  0  0  0  0  0  0  0
   16.0980   13.5120   20.6860 H   0  0  0  0  0  0  0  0  0  0  0  0
   15.7100   13.3390   22.4150 H   0  0  0  0  0  0  0  0  0  0  0  0
   16.9540   11.2150   22.4820 H   0  0  0  0  0  0  0  0  0  0  0  0
   16.5480    9.9090   21.3450 H   0  0  0  0  0  0  0  0  0  0  0  0
   18.9020   10.9230   20.7310 N   0  0  0  0  0  0  0  0  0  0  0  0
   22.2720   12.9270   22.7600 O   0  0  0  0  0  0  0  0  0  0  0  0
   17.6230   11.5440   20.4750 C   0  0  0  0  0  0  0  0  0  0  0  0
   17.7050   12.6240   20.5980 H   0  0  0  0  0  0  0  0  0  0  0  0
   17.2990   11.3170   19.4590 H   0  0  0  0  0  0  0  0  0  0  0  0
   19.1230    9.6740   20.3070 N   0  0  0  0  0  0  0  0  0  0  0  0
   19.9550   11.4720   21.3840 C   0  0  0  0  0  0  0  0  0  0  0  0
   20.0090   12.4590   21.8180 H   0  0  0  0  0  0  0  0  0  0  0  0
   22.7900   11.1750   24.1580 N   0  0  0  0  0  0  0  0  0  0  0  0
   20.9380   10.5140   21.3800 C   0  0  0  0  0  0  0  0  0  0  0  0
   22.4690    9.3930   22.8380 N   0  0  0  0  0  0  0  0  0  0  0  0
   20.3610    9.4240   20.7010 C   0  0  0  0  0  0  0  0  0  0  0  0
   20.8710    8.4890   20.5220 H   0  0  0  0  0  0  0  0  0  0  0  0
   22.8120    9.0120   25.0300 N   0  0  0  0  0  0  0  0  0  0  0  0
   22.4800    8.0650   24.9150 H   0  0  0  0  0  0  0  0  0  0  0  0
   23.1100    9.3350   25.9390 H   0  0  0  0  0  0  0  0  0  0  0  0
   22.2970   10.5960   21.9830 C   0  0  3  0  0  0  0  0  0  0  0  0
   28.9400    9.6760   21.8070 N   0  0  0  0  0  0  0  0  0  0  0  0
   22.4290   11.7400   22.9820 C   0  0  0  0  0  0  0  0  0  0  0  0
   29.3350   11.8070   20.8130 C   0  0  0  0  0  0  0  0  0  0  0  0
   30.0140   12.6160   20.5870 H   0  0  0  0  0  0  0  0  0  0  0  0
   22.8560    9.8370   23.9800 C   0  0  0  0  0  0  0  0  0  0  0  0
   23.0170   11.9520   25.3510 C   0  0  0  0  0  0  0  0  0  0  0  0
   22.8760   13.0100   25.1280 H   0  0  0  0  0  0  0  0  0  0  0  0
   24.0350   11.7870   25.7040 H   0  0  0  0  0  0  0  0  0  0  0  0
   22.3110   11.6460   26.1230 H   0  0  0  0  0  0  0  0  0  0  0  0
   23.3350   10.8070   20.8720 C   0  0  0  0  0  0  0  0  0  0  0  0
   22.9920   11.0920   19.5340 C   0  0  0  0  0  0  0  0  0  0  0  0
   21.9520   11.1680   19.2540 H   0  0  0  0  0  0  0  0  0  0  0  0
   23.9790   11.2760   18.5700 C   0  0  0  0  0  0  0  0  0  0  0  0
   23.7000   11.4870   17.5480 H   0  0  0  0  0  0  0  0  0  0  0  0
   25.3240   11.1890   18.9180 C   0  0  0  0  0  0  0  0  0  0  0  0
   26.0810   11.3390   18.1620 H   0  0  0  0  0  0  0  0  0  0  0  0
   25.7110   10.9080   20.2410 C   0  0  0  0  0  0  0  0  0  0  0  0
   24.7010   10.7290   21.1920 C   0  0  0  0  0  0  0  0  0  0  0  0
   24.9830   10.5220   22.2140 H   0  0  0  0  0  0  0  0  0  0  0  0
   27.1120   10.8280   20.6810 C   0  0  0  0  0  0  0  0  0  0  0  0
   27.6460    9.7590   21.3920 C   0  0  0  0  0  0  0  0  0  0  0  0
   26.8280    8.7380   21.6900 F   0  0  0  0  0  0  0  0  0  0  0  0
   29.7290   10.7180   21.4930 C   0  0  0  0  0  0  0  0  0  0  0  0
   30.7600   10.6760   21.8120 H   0  0  0  0  0  0  0  0  0  0  0  0
   28.0330   11.8330   20.4260 C   0  0  0  0  0  0  0  0  0  0  0  0
   27.6900   12.6990   19.8800 H   0  0  0  0  0  0  0  0  0  0  0  0
  1  2  1  0  0  0  0
  1 15  1  0  0  0  0
  1 16  1  0  0  0  0
  1 19  1  0  0  0  0
  2  3  1  0  0  0  0
  2  7  1  0  0  0  0
  2 11  1  0  0  0  0
  3  4  1  0  0  0  0
  3  5  1  0  0  0  0
  3  6  1  0  0  0  0
  7  8  1  0  0  0  0
  7  9  1  0  0  0  0
  7 10  1  0  0  0  0
 11 12  1  0  0  0  0
 11 13  1  0  0  0  0
 11 14  1  0  0  0  0
 17 19  1  0  0  0  0
 17 22  1  0  0  0  0
 17 23  1  0  0  0  0
 18 35  2  0  0  0  0
 19 20  1  0  0  0  0
 19 21  1  0  0  0  0
 22 28  2  0  0  0  0
 23 24  1  0  0  0  0
 23 26  2  0  0  0  0
 25 35  1  0  0  0  0
 25 38  1  0  0  0  0
 25 39  1  0  0  0  0
 26 28  1  0  0  0  0
 26 33  1  0  0  0  0
 27 33  1  0  0  0  0
 27 38  2  0  0  0  0
 28 29  1  0  0  0  0
 30 31  1  0  0  0  0
 30 32  1  0  0  0  0
 30 38  1  0  0  0  0
 33 35  1  0  0  0  0
 33 43  1  0  0  0  0
 34 54  2  0  0  0  0
 34 56  1  0  0  0  0
 36 37  1  0  0  0  0
 36 56  2  0  0  0  0
 36 58  1  0  0  0  0
 39 40  1  0  0  0  0
 39 41  1  0  0  0  0
 39 42  1  0  0  0  0
 43 44  1  0  0  0  0
 43 51  2  0  0  0  0
 44 45  1  0  0  0  0
 44 46  2  0  0  0  0
 46 47  1  0  0  0  0
 46 48  1  0  0  0  0
 48 49  1  0  0  0  0
 48 50  2  0  0  0  0
 50 51  1  0  0  0  0
 50 53  1  0  0  0  0
 51 52  1  0  0  0  0
 53 54  1  0  0  0  0
 53 58  2  0  0  0  0
 54 55  1  0  0  0  0
 56 57  1  0  0  0  0
 58 59  1  0  0  0  0
M  END
>  <PARENT_CMPD_ID>
CHEMBL1824342

>  <STANDARD_TYPE>
IC50

>  <RELATION>
=

>  <STANDARD_VALUE>
20

>  <STANDARD_UNITS>
nM

>  <COMPOUND_KEY>
45

>  <PUBMED_ID>
21835615

>  <JOURNAL>
Bioorg.Med.Chem.Lett.

>  <YEAR>
2011

>  <VOLUME>
21

>  <FIRST_PAGE>
5164

>  <Company>
Pfizer

>  <idx>
517

>  <Model>
Valid

>  <target>
7.6989698

>  <des_pred_mlr>
6.6340098

>  <RF_Canvas>
7.467473

>  <DNN_Canvas>
7.726409

>  <pred_CoMFA>
8.7186003

>  <pred_COMSIA>
7.5186

>  <pred_abm5>
7.7184005

>  <pred_ff8>
5.9464264

>  <pred_gau6>
7.6762176

>  <CID>
BACE_517

>  <active>
1

>  <des_class_bayes>
0

>  <maacs_class_bayes>
1

>  <radial_class_bayes>
0

>  <dend_class_bayes>
1

>  <molprint_class_bayes>
1

>  <RF_canvas>
1

>  <DNN_canvas>
1

$$$$
CHEMBL1824343
  MOE2015           3D

 59 62  0  0  1  0  0  0  0  0999 V2000
   16.6230   10.9890   21.4690 C   0  0  0  0  0  0  0  0  0  0  0  0
   15.2740   11.6190   21.2280 C   0  0  0  0  0  0  0  0  0  0  0  0
   15.3500   12.6990   21.3530 H   0  0  0  0  0  0  0  0  0  0  0  0
   14.9430   11.3920   20.2150 H   0  0  0  0  0  0  0  0  0  0  0  0
   14.2780   11.0670   22.2170 C   0  0  0  0  0  0  0  0  0  0  0  0
   13.3030   11.5220   22.0430 H   0  0  0  0  0  0  0  0  0  0  0  0
   14.6090   11.2930   23.2310 H   0  0  0  0  0  0  0  0  0  0  0  0
   14.2030    9.9870   22.0920 H   0  0  0  0  0  0  0  0  0  0  0  0
   16.9540   11.2150   22.4820 H   0  0  0  0  0  0  0  0  0  0  0  0
   16.5190    9.4950   21.2970 C   0  0  0  0  0  0  0  0  0  0  0  0
   15.5230    8.9430   22.2860 C   0  0  0  0  0  0  0  0  0  0  0  0
   15.4480    7.8630   22.1620 H   0  0  0  0  0  0  0  0  0  0  0  0
   14.5480    9.3980   22.1130 H   0  0  0  0  0  0  0  0  0  0  0  0
   15.8550    9.1700   23.3000 H   0  0  0  0  0  0  0  0  0  0  0  0
   17.4940    9.0400   21.4700 H   0  0  0  0  0  0  0  0  0  0  0  0
   16.1870    9.2680   20.2830 H   0  0  0  0  0  0  0  0  0  0  0  0
   18.9020   10.9230   20.7310 N   0  0  0  0  0  0  0  0  0  0  0  0
   22.2720   12.9270   22.7600 O   0  0  0  0  0  0  0  0  0  0  0  0
   17.6230   11.5440   20.4750 C   0  0  0  0  0  0  0  0  0  0  0  0
   17.7050   12.6240   20.5980 H   0  0  0  0  0  0  0  0  0  0  0  0
   17.2990   11.3170   19.4590 H   0  0  0  0  0  0  0  0  0  0  0  0
   19.1230    9.6740   20.3070 N   0  0  0  0  0  0  0  0  0  0  0  0
   19.9550   11.4720   21.3840 C   0  0  0  0  0  0  0  0  0  0  0  0
   20.0090   12.4590   21.8180 H   0  0  0  0  0  0  0  0  0  0  0  0
   22.7900   11.1750   24.1580 N   0  0  0  0  0  0  0  0  0  0  0  0
   20.9380   10.5140   21.3800 C   0  0  0  0  0  0  0  0  0  0  0  0
   22.4690    9.3930   22.8380 N   0  0  0  0  0  0  0  0  0  0  0  0
   20.3610    9.4240   20.7010 C   0  0  0  0  0  0  0  0  0  0  0  0
   20.8710    8.4890   20.5220 H   0  0  0  0  0  0  0  0  0  0  0  0
   22.8120    9.0120   25.0300 N   0  0  0  0  0  0  0  0  0  0  0  0
   22.4800    8.0650   24.9150 H   0  0  0  0  0  0  0  0  0  0  0  0
   23.1100    9.3350   25.9390 H   0  0  0  0  0  0  0  0  0  0  0  0
   22.2970   10.5960   21.9830 C   0  0  3  0  0  0  0  0  0  0  0  0
   28.9400    9.6760   21.8070 N   0  0  0  0  0  0  0  0  0  0  0  0
   22.4290   11.7400   22.9820 C   0  0  0  0  0  0  0  0  0  0  0  0
   29.3350   11.8070   20.8130 C   0  0  0  0  0  0  0  0  0  0  0  0
   30.0140   12.6160   20.5870 H   0  0  0  0  0  0  0  0  0  0  0  0
   22.8560    9.8370   23.9800 C   0  0  0  0  0  0  0  0  0  0  0  0
   23.0170   11.9520   25.3510 C   0  0  0  0  0  0  0  0  0  0  0  0
   22.8760   13.0100   25.1280 H   0  0  0  0  0  0  0  0  0  0  0  0
   24.0350   11.7870   25.7040 H   0  0  0  0  0  0  0  0  0  0  0  0
   22.3110   11.6460   26.1230 H   0  0  0  0  0  0  0  0  0  0  0  0
   23.3350   10.8070   20.8720 C   0  0  0  0  0  0  0  0  0  0  0  0
   22.9920   11.0920   19.5340 C   0  0  0  0  0  0  0  0  0  0  0  0
   21.9520   11.1680   19.2540 H   0  0  0  0  0  0  0  0  0  0  0  0
   23.9790   11.2760   18.5700 C   0  0  0  0  0  0  0  0  0  0  0  0
   23.7000   11.4870   17.5480 H   0  0  0  0  0  0  0  0  0  0  0  0
   25.3240   11.1890   18.9180 C   0  0  0  0  0  0  0  0  0  0  0  0
   26.0810   11.3390   18.1620 H   0  0  0  0  0  0  0  0  0  0  0  0
   25.7110   10.9080   20.2410 C   0  0  0  0  0  0  0  0  0  0  0  0
   24.7010   10.7290   21.1920 C   0  0  0  0  0  0  0  0  0  0  0  0
   24.9830   10.5220   22.2140 H   0  0  0  0  0  0  0  0  0  0  0  0
   27.1120   10.8280   20.6810 C   0  0  0  0  0  0  0  0  0  0  0  0
   27.6460    9.7590   21.3920 C   0  0  0  0  0  0  0  0  0  0  0  0
   26.8280    8.7380   21.6900 F   0  0  0  0  0  0  0  0  0  0  0  0
   29.7290   10.7180   21.4930 C   0  0  0  0  0  0  0  0  0  0  0  0
   30.7600   10.6760   21.8120 H   0  0  0  0  0  0  0  0  0  0  0  0
   28.0330   11.8330   20.4260 C   0  0  0  0  0  0  0  0  0  0  0  0
   27.6900   12.6990   19.8800 H   0  0  0  0  0  0  0  0  0  0  0  0
  1  2  1  0  0  0  0
  1  9  1  0  0  0  0
  1 10  1  0  0  0  0
  1 19  1  0  0  0  0
  2  3  1  0  0  0  0
  2  4  1  0  0  0  0
  2  5  1  0  0  0  0
  5  6  1  0  0  0  0
  5  7  1  0  0  0  0
  5  8  1  0  0  0  0
 10 11  1  0  0  0  0
 10 15  1  0  0  0  0
 10 16  1  0  0  0  0
 11 12  1  0  0  0  0
 11 13  1  0  0  0  0
 11 14  1  0  0  0  0
 17 19  1  0  0  0  0
 17 22  1  0  0  0  0
 17 23  1  0  0  0  0
 18 35  2  0  0  0  0
 19 20  1  0  0  0  0
 19 21  1  0  0  0  0
 22 28  2  0  0  0  0
 23 24  1  0  0  0  0
 23 26  2  0  0  0  0
 25 35  1  0  0  0  0
 25 38  1  0  0  0  0
 25 39  1  0  0  0  0
 26 28  1  0  0  0  0
 26 33  1  0  0  0  0
 27 33  1  0  0  0  0
 27 38  2  0  0  0  0
 28 29  1  0  0  0  0
 30 31  1  0  0  0  0
 30 32  1  0  0  0  0
 30 38  1  0  0  0  0
 33 35  1  0  0  0  0
 33 43  1  0  0  0  0
 34 54  2  0  0  0  0
 34 56  1  0  0  0  0
 36 37  1  0  0  0  0
 36 56  2  0  0  0  0
 36 58  1  0  0  0  0
 39 40  1  0  0  0  0
 39 41  1  0  0  0  0
 39 42  1  0  0  0  0
 43 44  1  0  0  0  0
 43 51  2  0  0  0  0
 44 45  1  0  0  0  0
 44 46  2  0  0  0  0
 46 47  1  0  0  0  0
 46 48  1  0  0  0  0
 48 49  1  0  0  0  0
 48 50  2  0  0  0  0
 50 51  1  0  0  0  0
 50 53  1  0  0  0  0
 51 52  1  0  0  0  0
 53 54  1  0  0  0  0
 53 58  2  0  0  0  0
 54 55  1  0  0  0  0
 56 57  1  0  0  0  0
 58 59  1  0  0  0  0
M  END
>  <PARENT_CMPD_ID>
CHEMBL1824343

>  <STANDARD_TYPE>
IC50

>  <RELATION>
=

>  <STANDARD_VALUE>
20

>  <STANDARD_UNITS>
nM

>  <COMPOUND_KEY>
46

>  <PUBMED_ID>
21835615

>  <JOURNAL>
Bioorg.Med.Chem.Lett.

>  <YEAR>
2011

>  <VOLUME>
21

>  <FIRST_PAGE>
5164

>  <Company>
Pfizer

>  <idx>
518

>  <Model>
Valid

>  <target>
7.6989698

>  <des_pred_mlr>
6.4772401

>  <RF_Canvas>
7.2072315

>  <DNN_Canvas>
7.2298942

>  <pred_CoMFA>
8.9205999

>  <pred_COMSIA>
7.2319002

>  <pred_abm5>
7.8727918

>  <pred_ff8>
6.352139

>  <pred_gau6>
7.7315869

>  <CID>
BACE_518

>  <active>
1

>  <des_class_bayes>
0

>  <maacs_class_bayes>
1

>  <radial_class_bayes>
0

>  <dend_class_bayes>
1

>  <molprint_class_bayes>
1

>  <RF_canvas>
1

>  <DNN_canvas>
1

$$$$
CHEMBL1824345
  MOE2015           3D

 54 58  0  0  1  0  0  0  0  0999 V2000
   16.9090   12.0480   21.7400 C   0  0  0  0  0  0  0  0  0  0  0  0
   17.3600   11.6950   22.6730 H   0  0  0  0  0  0  0  0  0  0  0  0
   16.9320   13.5670   21.6360 C   0  0  0  0  0  0  0  0  0  0  0  0
   17.8820   13.9610   22.0130 H   0  0  0  0  0  0  0  0  0  0  0  0
   16.1200   14.0330   22.2020 H   0  0  0  0  0  0  0  0  0  0  0  0
   15.8670   11.7050   21.7320 H   0  0  0  0  0  0  0  0  0  0  0  0
   18.9020   10.9230   20.7310 N   0  0  0  0  0  0  0  0  0  0  0  0
   22.2720   12.9270   22.7600 O   0  0  0  0  0  0  0  0  0  0  0  0
   17.6150   11.5450   20.4690 C   0  0  0  0  0  0  0  0  0  0  0  0
   17.7190   12.7590   19.5300 C   0  0  0  0  0  0  0  0  0  0  0  0
   16.8120   13.8170   20.1430 C   0  0  0  0  0  0  0  0  0  0  0  0
   15.7770   13.6630   19.8140 H   0  0  0  0  0  0  0  0  0  0  0  0
   17.1110   14.8320   19.8640 H   0  0  0  0  0  0  0  0  0  0  0  0
   17.4070   12.5090   18.5110 H   0  0  0  0  0  0  0  0  0  0  0  0
   18.7450   13.1430   19.4680 H   0  0  0  0  0  0  0  0  0  0  0  0
   16.9830   10.7770   20.0030 H   0  0  0  0  0  0  0  0  0  0  0  0
   19.1230    9.6740   20.3070 N   0  0  0  0  0  0  0  0  0  0  0  0
   19.9550   11.4720   21.3840 C   0  0  0  0  0  0  0  0  0  0  0  0
   20.0090   12.4590   21.8180 H   0  0  0  0  0  0  0  0  0  0  0  0
   22.7900   11.1750   24.1580 N   0  0  0  0  0  0  0  0  0  0  0  0
   20.9380   10.5140   21.3800 C   0  0  0  0  0  0  0  0  0  0  0  0
   22.4690    9.3930   22.8380 N   0  0  0  0  0  0  0  0  0  0  0  0
   20.3610    9.4240   20.7010 C   0  0  0  0  0  0  0  0  0  0  0  0
   20.8710    8.4890   20.5220 H   0  0  0  0  0  0  0  0  0  0  0  0
   22.8120    9.0120   25.0300 N   0  0  0  0  0  0  0  0  0  0  0  0
   22.4800    8.0650   24.9150 H   0  0  0  0  0  0  0  0  0  0  0  0
   23.1100    9.3350   25.9390 H   0  0  0  0  0  0  0  0  0  0  0  0
   22.2970   10.5960   21.9830 C   0  0  3  0  0  0  0  0  0  0  0  0
   28.9400    9.6760   21.8070 N   0  0  0  0  0  0  0  0  0  0  0  0
   22.4290   11.7400   22.9820 C   0  0  0  0  0  0  0  0  0  0  0  0
   29.3350   11.8070   20.8130 C   0  0  0  0  0  0  0  0  0  0  0  0
   30.0140   12.6160   20.5870 H   0  0  0  0  0  0  0  0  0  0  0  0
   22.8560    9.8370   23.9800 C   0  0  0  0  0  0  0  0  0  0  0  0
   23.0170   11.9520   25.3510 C   0  0  0  0  0  0  0  0  0  0  0  0
   22.8760   13.0100   25.1280 H   0  0  0  0  0  0  0  0  0  0  0  0
   24.0350   11.7870   25.7040 H   0  0  0  0  0  0  0  0  0  0  0  0
   22.3110   11.6460   26.1230 H   0  0  0  0  0  0  0  0  0  0  0  0
   23.3350   10.8070   20.8720 C   0  0  0  0  0  0  0  0  0  0  0  0
   22.9920   11.0920   19.5340 C   0  0  0  0  0  0  0  0  0  0  0  0
   21.9520   11.1680   19.2540 H   0  0  0  0  0  0  0  0  0  0  0  0
   23.9790   11.2760   18.5700 C   0  0  0  0  0  0  0  0  0  0  0  0
   23.7000   11.4870   17.5480 H   0  0  0  0  0  0  0  0  0  0  0  0
   25.3240   11.1890   18.9180 C   0  0  0  0  0  0  0  0  0  0  0  0
   26.0810   11.3390   18.1620 H   0  0  0  0  0  0  0  0  0  0  0  0
   25.7110   10.9080   20.2410 C   0  0  0  0  0  0  0  0  0  0  0  0
   24.7010   10.7290   21.1920 C   0  0  0  0  0  0  0  0  0  0  0  0
   24.9830   10.5220   22.2140 H   0  0  0  0  0  0  0  0  0  0  0  0
   27.1120   10.8280   20.6810 C   0  0  0  0  0  0  0  0  0  0  0  0
   27.6460    9.7590   21.3920 C   0  0  0  0  0  0  0  0  0  0  0  0
   26.8280    8.7380   21.6900 F   0  0  0  0  0  0  0  0  0  0  0  0
   29.7290   10.7180   21.4930 C   0  0  0  0  0  0  0  0  0  0  0  0
   30.7600   10.6760   21.8120 H   0  0  0  0  0  0  0  0  0  0  0  0
   28.0330   11.8330   20.4260 C   0  0  0  0  0  0  0  0  0  0  0  0
   27.6900   12.6990   19.8800 H   0  0  0  0  0  0  0  0  0  0  0  0
  1  2  1  0  0  0  0
  1  3  1  0  0  0  0
  1  6  1  0  0  0  0
  1  9  1  0  0  0  0
  3  4  1  0  0  0  0
  3  5  1  0  0  0  0
  3 11  1  0  0  0  0
  7  9  1  0  0  0  0
  7 17  1  0  0  0  0
  7 18  1  0  0  0  0
  8 30  2  0  0  0  0
  9 10  1  0  0  0  0
  9 16  1  0  0  0  0
 10 11  1  0  0  0  0
 10 14  1  0  0  0  0
 10 15  1  0  0  0  0
 11 12  1  0  0  0  0
 11 13  1  0  0  0  0
 17 23  2  0  0  0  0
 18 19  1  0  0  0  0
 18 21  2  0  0  0  0
 20 30  1  0  0  0  0
 20 33  1  0  0  0  0
 20 34  1  0  0  0  0
 21 23  1  0  0  0  0
 21 28  1  0  0  0  0
 22 28  1  0  0  0  0
 22 33  2  0  0  0  0
 23 24  1  0  0  0  0
 25 26  1  0  0  0  0
 25 27  1  0  0  0  0
 25 33  1  0  0  0  0
 28 30  1  0  0  0  0
 28 38  1  0  0  0  0
 29 49  2  0  0  0  0
 29 51  1  0  0  0  0
 31 32  1  0  0  0  0
 31 51  2  0  0  0  0
 31 53  1  0  0  0  0
 34 35  1  0  0  0  0
 34 36  1  0  0  0  0
 34 37  1  0  0  0  0
 38 39  1  0  0  0  0
 38 46  2  0  0  0  0
 39 40  1  0  0  0  0
 39 41  2  0  0  0  0
 41 42  1  0  0  0  0
 41 43  1  0  0  0  0
 43 44  1  0  0  0  0
 43 45  2  0  0  0  0
 45 46  1  0  0  0  0
 45 48  1  0  0  0  0
 46 47  1  0  0  0  0
 48 49  1  0  0  0  0
 48 53  2  0  0  0  0
 49 50  1  0  0  0  0
 51 52  1  0  0  0  0
 53 54  1  0  0  0  0
M  END
>  <PARENT_CMPD_ID>
CHEMBL1824345

>  <STANDARD_TYPE>
IC50

>  <RELATION>
=

>  <STANDARD_VALUE>
20

>  <STANDARD_UNITS>
nM

>  <COMPOUND_KEY>
48

>  <PUBMED_ID>
21835615

>  <JOURNAL>
Bioorg.Med.Chem.Lett.

>  <YEAR>
2011

>  <VOLUME>
21

>  <FIRST_PAGE>
5164

>  <Company>
Pfizer

>  <idx>
519

>  <Model>
Valid

>  <target>
7.6989698

>  <des_pred_mlr>
6.5426798

>  <RF_Canvas>
7.1019716

>  <DNN_Canvas>
6.912529

>  <pred_CoMFA>
8.0534

>  <pred_COMSIA>
7.8993001

>  <pred_abm5>
7.5389099

>  <pred_ff8>
5.9116869

>  <pred_gau6>
7.7213368

>  <CID>
BACE_519

>  <active>
1

>  <des_class_bayes>
1

>  <maacs_class_bayes>
1

>  <radial_class_bayes>
0

>  <dend_class_bayes>
1

>  <molprint_class_bayes>
1

>  <RF_canvas>
1

>  <DNN_canvas>
1

$$$$
22468639_22
  MOE2015           3D

 85 90  0  0  1  0  0  0  0  0999 V2000
   21.1020   13.8270   29.1890 C   0  0  0  0  0  0  0  0  0  0  0  0
   22.1960   13.8260   29.1810 H   0  0  0  0  0  0  0  0  0  0  0  0
   20.7610   14.8690   29.1520 H   0  0  0  0  0  0  0  0  0  0  0  0
   20.4640   13.0180   30.3130 C   0  0  0  0  0  0  0  0  0  0  0  0
   20.0610   13.5990   31.1470 H   0  0  0  0  0  0  0  0  0  0  0  0
   21.1150   12.2330   30.7140 H   0  0  0  0  0  0  0  0  0  0  0  0
   19.4370   12.5060   29.3070 C   0  0  0  0  0  0  0  0  0  0  0  0
   18.4990   13.0740   29.3120 H   0  0  0  0  0  0  0  0  0  0  0  0
   19.1950   11.4430   29.3960 H   0  0  0  0  0  0  0  0  0  0  0  0
   20.4020   12.9030   28.1650 C   0  0  0  0  0  0  0  0  0  0  0  0
   21.3110   11.8200   27.6080 C   0  0  0  0  0  0  0  0  0  0  0  0
   21.8100   11.2560   28.4060 H   0  0  0  0  0  0  0  0  0  0  0  0
   22.1060   12.3070   27.0310 H   0  0  0  0  0  0  0  0  0  0  0  0
   19.8040   13.6280   27.0800 O   0  0  0  0  0  0  0  0  0  0  0  0
   19.1470   12.8910   26.1330 C   0  0  0  0  0  0  0  0  0  0  0  0
   18.2430   13.5890   25.4280 N   0  0  0  0  0  0  0  0  0  0  0  0
   17.5780   12.9250   24.4700 C   0  0  0  0  0  0  0  0  0  0  0  0
   16.8680   13.5320   23.9140 H   0  0  0  0  0  0  0  0  0  0  0  0
   17.7450   11.5770   24.1950 C   0  0  0  0  0  0  0  0  0  0  0  0
   16.9360   10.9080   23.1240 C   0  0  0  0  0  0  0  0  0  0  0  0
   17.5390   10.1020   22.6830 H   0  0  0  0  0  0  0  0  0  0  0  0
   16.8020   11.6300   22.3050 H   0  0  0  0  0  0  0  0  0  0  0  0
   15.5610   10.3540   23.5490 C   0  0  0  0  0  0  0  0  0  0  0  0
   14.8510    9.8450   22.2900 C   0  0  0  0  0  0  0  0  0  0  0  0
   14.6940   10.6520   21.5650 H   0  0  0  0  0  0  0  0  0  0  0  0
   13.8680    9.4200   22.5270 H   0  0  0  0  0  0  0  0  0  0  0  0
   15.4350    9.0620   21.7930 H   0  0  0  0  0  0  0  0  0  0  0  0
   14.6780   11.4250   24.1890 C   0  0  0  0  0  0  0  0  0  0  0  0
   14.5820   12.3030   23.5400 H   0  0  0  0  0  0  0  0  0  0  0  0
   15.0680   11.7570   25.1570 H   0  0  0  0  0  0  0  0  0  0  0  0
   13.6660   11.0450   24.3720 H   0  0  0  0  0  0  0  0  0  0  0  0
   15.7140    9.1850   24.5220 C   0  0  0  0  0  0  0  0  0  0  0  0
   16.3610    8.4030   24.1080 H   0  0  0  0  0  0  0  0  0  0  0  0
   14.7440    8.7240   24.7440 H   0  0  0  0  0  0  0  0  0  0  0  0
   16.1430    9.5030   25.4780 H   0  0  0  0  0  0  0  0  0  0  0  0
   18.6880   10.8870   24.9480 C   0  0  0  0  0  0  0  0  0  0  0  0
   18.8320    9.8250   24.7630 H   0  0  0  0  0  0  0  0  0  0  0  0
   19.4370   11.5520   25.9210 C   0  0  0  0  0  0  0  0  0  0  0  0
   20.4970   10.8630   26.7300 C   0  0  3  0  0  0  0  0  0  0  0  0
   19.9880   10.1440   27.3840 H   0  0  0  0  0  0  0  0  0  0  0  0
   21.4610   10.0260   25.9170 N   0  3  0  0  0  0  0  0  0  0  0  0
   20.9410    9.2600   25.4560 H   0  0  0  0  0  0  0  0  0  0  0  0
   22.1270    9.5530   26.5420 H   0  0  0  0  0  0  0  0  0  0  0  0
   22.2040   10.7360   24.8160 C   0  0  0  0  0  0  0  0  0  0  0  0
   23.0330   11.2670   25.2890 H   0  0  0  0  0  0  0  0  0  0  0  0
   21.5170   11.4470   24.3490 H   0  0  0  0  0  0  0  0  0  0  0  0
   22.6830    9.7070   23.7880 C   0  0  3  0  0  0  0  0  0  0  0  0
   23.3510    8.9850   24.2730 H   0  0  0  0  0  0  0  0  0  0  0  0
   21.5390    8.9890   23.3200 O   0  0  0  0  0  0  0  0  0  0  0  0
   21.0750    9.5130   22.6400 H   0  0  0  0  0  0  0  0  0  0  0  0
   23.4040   10.3940   22.6150 C   0  0  3  0  0  0  0  0  0  0  0  0
   22.6700   11.0710   22.1580 H   0  0  0  0  0  0  0  0  0  0  0  0
   24.5300   11.1840   23.0800 N   0  0  0  0  0  0  0  0  0  0  0  0
   25.3930   10.7120   23.3360 H   0  0  0  0  0  0  0  0  0  0  0  0
   24.4600   12.5590   23.1470 C   0  0  0  0  0  0  0  0  0  0  0  0
   23.4400   13.1950   22.9060 O   0  0  0  0  0  0  0  0  0  0  0  0
   25.7610   13.2010   23.5700 C   0  0  3  0  0  0  0  0  0  0  0  0
   26.1980   12.6360   24.4020 H   0  0  0  0  0  0  0  0  0  0  0  0
   26.7140   13.2700   22.3950 C   0  0  0  0  0  0  0  0  0  0  0  0
   26.1810   13.4780   21.4590 H   0  0  0  0  0  0  0  0  0  0  0  0
   27.2860   12.3470   22.2550 H   0  0  0  0  0  0  0  0  0  0  0  0
   27.5670   14.4450   22.7720 C   0  0  0  0  0  0  0  0  0  0  0  0
   28.0710   14.9160   21.9240 H   0  0  0  0  0  0  0  0  0  0  0  0
   28.3340   14.1310   23.4900 H   0  0  0  0  0  0  0  0  0  0  0  0
   25.5530   14.5360   24.0210 O   0  0  0  0  0  0  0  0  0  0  0  0
   26.5740   15.3620   23.4530 C   0  0  0  0  0  0  0  0  0  0  0  0
   27.0350   15.9710   24.2360 H   0  0  0  0  0  0  0  0  0  0  0  0
   26.0960   16.0320   22.7300 H   0  0  0  0  0  0  0  0  0  0  0  0
   23.8740    9.4200   21.5190 C   0  0  0  0  0  0  0  0  0  0  0  0
   23.0430    8.7950   21.1700 H   0  0  0  0  0  0  0  0  0  0  0  0
   24.6290    8.7350   21.9280 H   0  0  0  0  0  0  0  0  0  0  0  0
   24.4370   10.1630   20.3320 C   0  0  0  0  0  0  0  0  0  0  0  0
   25.7820   10.0330   19.9740 C   0  0  0  0  0  0  0  0  0  0  0  0
   26.4550    9.3690   20.5050 H   0  0  0  0  0  0  0  0  0  0  0  0
   26.2450   10.7770   18.9100 C   0  0  0  0  0  0  0  0  0  0  0  0
   27.5000   10.7520   18.3890 O   0  0  0  0  0  0  0  0  0  0  0  0
   27.4150   11.8210   17.4350 C   0  0  0  0  0  0  0  0  0  0  0  0
   27.8610   11.4830   16.4930 H   0  0  0  0  0  0  0  0  0  0  0  0
   27.9890   12.6810   17.8030 H   0  0  0  0  0  0  0  0  0  0  0  0
   26.0640   12.2270   17.1810 O   0  0  0  0  0  0  0  0  0  0  0  0
   25.4250   11.6220   18.2120 C   0  0  0  0  0  0  0  0  0  0  0  0
   24.0980   11.7650   18.5260 C   0  0  0  0  0  0  0  0  0  0  0  0
   23.4570   12.4260   17.9530 H   0  0  0  0  0  0  0  0  0  0  0  0
   23.6050   11.0230   19.5900 C   0  0  0  0  0  0  0  0  0  0  0  0
   22.5510   11.1230   19.8420 H   0  0  0  0  0  0  0  0  0  0  0  0
  1  2  1  0  0  0  0
  1  3  1  0  0  0  0
  1  4  1  0  0  0  0
  1 10  1  0  0  0  0
  4  5  1  0  0  0  0
  4  6  1  0  0  0  0
  4  7  1  0  0  0  0
  7  8  1  0  0  0  0
  7  9  1  0  0  0  0
  7 10  1  0  0  0  0
 10 11  1  0  0  0  0
 10 14  1  0  0  0  0
 11 12  1  0  0  0  0
 11 13  1  0  0  0  0
 11 39  1  0  0  0  0
 14 15  1  0  0  0  0
 15 16  1  0  0  0  0
 15 38  2  0  0  0  0
 16 17  2  0  0  0  0
 17 18  1  0  0  0  0
 17 19  1  0  0  0  0
 19 20  1  0  0  0  0
 19 36  2  0  0  0  0
 20 21  1  0  0  0  0
 20 22  1  0  0  0  0
 20 23  1  0  0  0  0
 23 24  1  0  0  0  0
 23 28  1  0  0  0  0
 23 32  1  0  0  0  0
 24 25  1  0  0  0  0
 24 26  1  0  0  0  0
 24 27  1  0  0  0  0
 28 29  1  0  0  0  0
 28 30  1  0  0  0  0
 28 31  1  0  0  0  0
 32 33  1  0  0  0  0
 32 34  1  0  0  0  0
 32 35  1  0  0  0  0
 36 37  1  0  0  0  0
 36 38  1  0  0  0  0
 38 39  1  0  0  0  0
 39 40  1  0  0  0  0
 39 41  1  0  0  0  0
 41 42  1  0  0  0  0
 41 43  1  0  0  0  0
 41 44  1  0  0  0  0
 44 45  1  0  0  0  0
 44 46  1  0  0  0  0
 44 47  1  0  0  0  0
 47 48  1  0  0  0  0
 47 49  1  0  0  0  0
 47 51  1  0  0  0  0
 49 50  1  0  0  0  0
 51 52  1  0  0  0  0
 51 53  1  0  0  0  0
 51 69  1  0  0  0  0
 53 54  1  0  0  0  0
 53 55  1  0  0  0  0
 55 56  2  0  0  0  0
 55 57  1  0  0  0  0
 57 58  1  0  0  0  0
 57 59  1  0  0  0  0
 57 65  1  0  0  0  0
 59 60  1  0  0  0  0
 59 61  1  0  0  0  0
 59 62  1  0  0  0  0
 62 63  1  0  0  0  0
 62 64  1  0  0  0  0
 62 66  1  0  0  0  0
 65 66  1  0  0  0  0
 66 67  1  0  0  0  0
 66 68  1  0  0  0  0
 69 70  1  0  0  0  0
 69 71  1  0  0  0  0
 69 72  1  0  0  0  0
 72 73  1  0  0  0  0
 72 84  2  0  0  0  0
 73 74  1  0  0  0  0
 73 75  2  0  0  0  0
 75 76  1  0  0  0  0
 75 81  1  0  0  0  0
 76 77  1  0  0  0  0
 77 78  1  0  0  0  0
 77 79  1  0  0  0  0
 77 80  1  0  0  0  0
 80 81  1  0  0  0  0
 81 82  2  0  0  0  0
 82 83  1  0  0  0  0
 82 84  1  0  0  0  0
 84 85  1  0  0  0  0
M  CHG  1  41   1
M  END
>  <PARENT_CMPD_ID>
22468639_22

>  <STANDARD_TYPE>
IC50

>  <RELATION>
=

>  <STANDARD_VALUE>
20.4

>  <STANDARD_UNITS>
nM

>  <COMPOUND_KEY>
22

>  <PUBMED_ID>
22468639

>  <JOURNAL>
J. Med. Chem.

>  <YEAR>
2012

>  <VOLUME>
55

>  <FIRST_PAGE>
9009

>  <Company>
Amgen

>  <idx>
520

>  <Model>
Valid

>  <target>
7.6903696

>  <des_pred_mlr>
7.79882

>  <RF_Canvas>
7.8018556

>  <DNN_Canvas>
8.1504831

>  <pred_CoMFA>
7.5372

>  <pred_COMSIA>
7.4579

>  <pred_abm5>
7.7438488

>  <pred_ff8>
7.5768685

>  <pred_gau6>
7.7417202

>  <CID>
BACE_520

>  <active>
1

>  <des_class_bayes>
1

>  <maacs_class_bayes>
1

>  <radial_class_bayes>
1

>  <dend_class_bayes>
1

>  <molprint_class_bayes>
1

>  <RF_canvas>
1

>  <DNN_canvas>
1

$$$$
CHEMBL1210358
  MOE2015           3D

 75 78  0  0  1  0  0  0  0  0999 V2000
   20.2640   11.1570   26.8570 C   0  0  0  0  0  0  0  0  0  0  0  0
   21.2670   10.3660   26.1000 N   0  3  0  0  0  0  0  0  0  0  0  0
   21.8970   11.1270   25.0050 C   0  0  0  0  0  0  0  0  0  0  0  0
   22.4530   10.1390   23.9780 C   0  0  3  0  0  0  0  0  0  0  0  0
   21.3320    9.3440   23.5740 O   0  0  0  0  0  0  0  0  0  0  0  0
   23.1060   10.8440   22.7960 C   0  0  3  0  0  0  0  0  0  0  0  0
   23.4280    9.8950   21.6440 C   0  0  0  0  0  0  0  0  0  0  0  0
   24.3110   10.5370   20.6000 C   0  0  0  0  0  0  0  0  0  0  0  0
   23.9700   11.7390   19.9960 C   0  0  0  0  0  0  0  0  0  0  0  0
   24.8050   12.3030   19.0450 C   0  0  0  0  0  0  0  0  0  0  0  0
   25.9840   11.6730   18.6870 C   0  0  0  0  0  0  0  0  0  0  0  0
   26.3250   10.4770   19.2830 C   0  0  0  0  0  0  0  0  0  0  0  0
   25.4930    9.9130   20.2330 C   0  0  0  0  0  0  0  0  0  0  0  0
   24.3240   11.5430   23.2230 N   0  0  0  0  0  0  0  0  0  0  0  0
   24.3340   12.9010   23.3860 C   0  0  0  0  0  0  0  0  0  0  0  0
   23.3260   13.6080   23.3880 O   0  0  0  0  0  0  0  0  0  0  0  0
   25.6870   13.4610   23.5640 C   0  0  0  0  0  0  0  0  0  0  0  0
   26.7520   12.9530   22.8410 C   0  0  0  0  0  0  0  0  0  0  0  0
   28.0260   13.4740   23.0230 N   0  0  0  0  0  0  0  0  0  0  0  0
   28.2310   14.5110   23.9240 C   0  0  0  0  0  0  0  0  0  0  0  0
   27.1480   15.0100   24.6360 C   0  0  0  0  0  0  0  0  0  0  0  0
   25.8780   14.4890   24.4640 C   0  0  0  0  0  0  0  0  0  0  0  0
   25.0450   14.8830   25.0280 H   0  0  0  0  0  0  0  0  0  0  0  0
   27.2970   16.0860   25.5750 N   0  0  0  0  0  0  0  0  0  0  0  0
   26.4820   17.2510   25.3990 C   0  0  0  0  0  0  0  0  0  0  0  0
   26.6630   18.0220   24.2710 C   0  0  0  0  0  0  0  0  0  0  0  0
   25.8640   19.1370   24.1070 C   0  0  0  0  0  0  0  0  0  0  0  0
   24.9250   19.4590   25.0620 C   0  0  0  0  0  0  0  0  0  0  0  0
   24.7560   18.6790   26.1830 C   0  0  0  0  0  0  0  0  0  0  0  0
   25.5390   17.5590   26.3600 C   0  0  0  0  0  0  0  0  0  0  0  0
   28.6320   16.2090   26.6040 S   0  0  0  0  0  0  0  0  0  0  0  0
   29.7320   17.2750   25.7120 C   0  0  0  0  0  0  0  0  0  0  0  0
   29.2570   14.9140   26.6820 O   0  0  0  0  0  0  0  0  0  0  0  0
   28.2360   16.9430   27.7840 O   0  0  0  0  0  0  0  0  0  0  0  0
   19.7950   10.5010   27.5910 H   0  0  0  0  0  0  0  0  0  0  0  0
   20.7560   11.9990   27.3440 H   0  0  0  0  0  0  0  0  0  0  0  0
   20.8080    9.5570   25.7070 H   0  0  0  0  0  0  0  0  0  0  0  0
   21.9890   10.0660   26.7400 H   0  0  0  0  0  0  0  0  0  0  0  0
   22.7070   11.7380   25.4020 H   0  0  0  0  0  0  0  0  0  0  0  0
   21.1550   11.7700   24.5310 H   0  0  0  0  0  0  0  0  0  0  0  0
   23.2470    9.5260   24.4060 H   0  0  0  0  0  0  0  0  0  0  0  0
   20.6720    9.9370   23.2080 H   0  0  0  0  0  0  0  0  0  0  0  0
   22.3790   11.5660   22.4250 H   0  0  0  0  0  0  0  0  0  0  0  0
   22.4950    9.5870   21.1720 H   0  0  0  0  0  0  0  0  0  0  0  0
   23.9390    9.0190   22.0440 H   0  0  0  0  0  0  0  0  0  0  0  0
   23.0510   12.2360   20.2680 H   0  0  0  0  0  0  0  0  0  0  0  0
   24.5340   13.2400   18.5800 H   0  0  0  0  0  0  0  0  0  0  0  0
   26.6330   12.1150   17.9460 H   0  0  0  0  0  0  0  0  0  0  0  0
   27.2430    9.9800   19.0070 H   0  0  0  0  0  0  0  0  0  0  0  0
   25.7670    8.9760   20.6940 H   0  0  0  0  0  0  0  0  0  0  0  0
   25.1660   11.0140   23.3990 H   0  0  0  0  0  0  0  0  0  0  0  0
   26.5920   12.1510   22.1350 H   0  0  0  0  0  0  0  0  0  0  0  0
   29.2190   14.9230   24.0690 H   0  0  0  0  0  0  0  0  0  0  0  0
   27.4090   17.7620   23.5350 H   0  0  0  0  0  0  0  0  0  0  0  0
   25.9760   19.7570   23.2290 H   0  0  0  0  0  0  0  0  0  0  0  0
   24.3120   20.3380   24.9290 H   0  0  0  0  0  0  0  0  0  0  0  0
   24.0130   18.9430   26.9210 H   0  0  0  0  0  0  0  0  0  0  0  0
   25.4180   16.9340   27.2330 H   0  0  0  0  0  0  0  0  0  0  0  0
   30.0680   16.7730   24.8040 H   0  0  0  0  0  0  0  0  0  0  0  0
   30.5940   17.5120   26.3360 H   0  0  0  0  0  0  0  0  0  0  0  0
   29.2110   18.1950   25.4470 H   0  0  0  0  0  0  0  0  0  0  0  0
   17.3570   12.6670   24.3100 C   0  0  0  0  0  0  0  0  0  0  0  0
   16.5950   13.0610   23.6420 H   0  0  0  0  0  0  0  0  0  0  0  0
   17.4060   11.2990   24.5790 C   0  0  0  0  0  0  0  0  0  0  0  0
   16.6820   10.6280   24.1210 H   0  0  0  0  0  0  0  0  0  0  0  0
   18.3830   10.7910   25.4350 C   0  0  0  0  0  0  0  0  0  0  0  0
   18.4210    9.7260   25.6450 H   0  0  0  0  0  0  0  0  0  0  0  0
   19.3110   11.6520   26.0220 C   0  0  0  0  0  0  0  0  0  0  0  0
   19.2620   13.0190   25.7530 C   0  0  0  0  0  0  0  0  0  0  0  0
   19.9850   13.6900   26.2100 H   0  0  0  0  0  0  0  0  0  0  0  0
   18.2850   13.5270   24.8960 C   0  0  0  0  0  0  0  0  0  0  0  0
   18.2320   14.9840   24.6090 C   0  0  0  0  0  0  0  0  0  0  0  0
   17.2050   15.2410   23.7560 F   0  0  0  0  0  0  0  0  0  0  0  0
   19.4030   15.3770   24.0400 F   0  0  0  0  0  0  0  0  0  0  0  0
   18.0400   15.6680   25.7690 F   0  0  0  0  0  0  0  0  0  0  0  0
  1  2  1  0  0  0  0
  1 35  1  0  0  0  0
  1 36  1  0  0  0  0
  1 68  1  0  0  0  0
  2  3  1  0  0  0  0
  2 37  1  0  0  0  0
  2 38  1  0  0  0  0
  3  4  1  0  0  0  0
  3 39  1  0  0  0  0
  3 40  1  0  0  0  0
  4  5  1  0  0  0  0
  4  6  1  0  0  0  0
  4 41  1  0  0  0  0
  5 42  1  0  0  0  0
  6  7  1  0  0  0  0
  6 14  1  0  0  0  0
  6 43  1  0  0  0  0
  7  8  1  0  0  0  0
  7 44  1  0  0  0  0
  7 45  1  0  0  0  0
  8  9  1  0  0  0  0
  8 13  2  0  0  0  0
  9 10  2  0  0  0  0
  9 46  1  0  0  0  0
 10 11  1  0  0  0  0
 10 47  1  0  0  0  0
 11 12  2  0  0  0  0
 11 48  1  0  0  0  0
 12 13  1  0  0  0  0
 12 49  1  0  0  0  0
 13 50  1  0  0  0  0
 14 15  1  0  0  0  0
 14 51  1  0  0  0  0
 15 16  2  0  0  0  0
 15 17  1  0  0  0  0
 17 18  1  0  0  0  0
 17 22  2  0  0  0  0
 18 19  2  0  0  0  0
 18 52  1  0  0  0  0
 19 20  1  0  0  0  0
 20 21  2  0  0  0  0
 20 53  1  0  0  0  0
 21 22  1  0  0  0  0
 21 24  1  0  0  0  0
 22 23  1  0  0  0  0
 24 25  1  0  0  0  0
 24 31  1  0  0  0  0
 25 26  1  0  0  0  0
 25 30  2  0  0  0  0
 26 27  2  0  0  0  0
 26 54  1  0  0  0  0
 27 28  1  0  0  0  0
 27 55  1  0  0  0  0
 28 29  2  0  0  0  0
 28 56  1  0  0  0  0
 29 30  1  0  0  0  0
 29 57  1  0  0  0  0
 30 58  1  0  0  0  0
 31 32  1  0  0  0  0
 31 33  2  0  0  0  0
 31 34  2  0  0  0  0
 32 59  1  0  0  0  0
 32 60  1  0  0  0  0
 32 61  1  0  0  0  0
 62 63  1  0  0  0  0
 62 64  1  0  0  0  0
 62 71  2  0  0  0  0
 64 65  1  0  0  0  0
 64 66  2  0  0  0  0
 66 67  1  0  0  0  0
 66 68  1  0  0  0  0
 68 69  2  0  0  0  0
 69 70  1  0  0  0  0
 69 71  1  0  0  0  0
 71 72  1  0  0  0  0
 72 73  1  0  0  0  0
 72 74  1  0  0  0  0
 72 75  1  0  0  0  0
M  CHG  1   2   1
M  END
>  <PARENT_CMPD_ID>
CHEMBL1210358

>  <STANDARD_TYPE>
IC50

>  <RELATION>
=

>  <STANDARD_VALUE>
21

>  <STANDARD_UNITS>
nM

>  <COMPOUND_KEY>
38

>  <PUBMED_ID>
20579874

>  <JOURNAL>
Bioorg. Med. Chem. Lett.

>  <YEAR>
2010

>  <VOLUME>
20

>  <FIRST_PAGE>
4639

>  <Company>
GSK

>  <idx>
521

>  <Model>
Valid

>  <target>
7.6777806

>  <des_pred_mlr>
7.2165699

>  <RF_Canvas>
7.7566891

>  <DNN_Canvas>
7.5609531

>  <pred_CoMFA>
6.7618999

>  <pred_COMSIA>
7.7593999

>  <pred_abm5>
7.2462392

>  <pred_ff8>
7.86657

>  <pred_gau6>
7.2686033

>  <CID>
BACE_521

>  <active>
1

>  <des_class_bayes>
1

>  <maacs_class_bayes>
1

>  <radial_class_bayes>
1

>  <dend_class_bayes>
1

>  <molprint_class_bayes>
1

>  <RF_canvas>
1

>  <DNN_canvas>
1

$$$$
CHEMBL1915993
  MOE2015           3D

 88 91  0  0  1  0  0  0  0  0999 V2000
   25.1250   20.4600   25.3770 C   0  0  0  0  0  0  0  0  0  0  0  0
   25.0110   21.5340   25.3990 H   0  0  0  0  0  0  0  0  0  0  0  0
   24.5530   19.6790   26.3820 C   0  0  0  0  0  0  0  0  0  0  0  0
   23.9970   20.1390   27.1860 H   0  0  0  0  0  0  0  0  0  0  0  0
   25.8500   19.8520   24.3350 C   0  0  0  0  0  0  0  0  0  0  0  0
   26.2880   20.4650   23.5610 H   0  0  0  0  0  0  0  0  0  0  0  0
   24.7120   18.2920   26.3300 C   0  0  0  0  0  0  0  0  0  0  0  0
   24.2700   17.6760   27.0990 H   0  0  0  0  0  0  0  0  0  0  0  0
   26.0110   18.4630   24.2890 C   0  0  0  0  0  0  0  0  0  0  0  0
   26.5700   17.9990   23.4900 H   0  0  0  0  0  0  0  0  0  0  0  0
   23.1870   11.8460   20.3250 C   0  0  0  0  0  0  0  0  0  0  0  0
   22.2260   12.1450   20.7180 H   0  0  0  0  0  0  0  0  0  0  0  0
   25.1040   10.4330   20.3920 C   0  0  0  0  0  0  0  0  0  0  0  0
   25.6580    9.6180   20.8340 H   0  0  0  0  0  0  0  0  0  0  0  0
   24.9360   12.1640   18.6930 C   0  0  0  0  0  0  0  0  0  0  0  0
   25.3360   12.6830   17.8350 H   0  0  0  0  0  0  0  0  0  0  0  0
   25.4350   17.6910   25.2960 C   0  0  0  0  0  0  0  0  0  0  0  0
   23.8700   10.7920   20.9260 C   0  0  0  0  0  0  0  0  0  0  0  0
   23.7120   12.5220   19.2320 C   0  0  0  0  0  0  0  0  0  0  0  0
   25.6390   11.1160   19.2860 C   0  0  0  0  0  0  0  0  0  0  0  0
   27.1750   13.4880   23.6660 C   0  0  0  0  0  0  0  0  0  0  0  0
   23.6640   13.1990   23.8080 C   0  0  0  0  0  0  0  0  0  0  0  0
   27.2350   14.1150   21.3400 C   0  0  0  0  0  0  0  0  0  0  0  0
   27.5580   15.1550   21.2900 H   0  0  0  0  0  0  0  0  0  0  0  0
   27.3370   13.6550   20.3570 H   0  0  0  0  0  0  0  0  0  0  0  0
   20.4890   11.9020   25.1990 C   0  0  0  0  0  0  0  0  0  0  0  0
   20.8500   12.9300   25.1550 H   0  0  0  0  0  0  0  0  0  0  0  0
   20.0890   11.6150   24.2260 H   0  0  0  0  0  0  0  0  0  0  0  0
   25.8080   13.9890   21.8800 C   0  0  0  0  0  0  0  0  0  0  0  0
   25.3190   13.1130   21.4530 H   0  0  0  0  0  0  0  0  0  0  0  0
   25.2320   14.8820   21.6350 H   0  0  0  0  0  0  0  0  0  0  0  0
   20.1540   11.0320   27.3770 C   0  0  0  0  0  0  0  0  0  0  0  0
   19.4610   10.5130   28.0390 H   0  0  0  0  0  0  0  0  0  0  0  0
   20.7690   11.7180   27.9600 H   0  0  0  0  0  0  0  0  0  0  0  0
   19.4070   11.7700   26.2720 C   0  0  3  0  0  0  0  0  0  0  0  0
   18.9590   12.7220   26.5570 H   0  0  0  0  0  0  0  0  0  0  0  0
   21.6380   10.9530   25.6010 C   0  0  3  0  0  0  0  0  0  0  0  0
   22.4980   11.5110   25.9720 H   0  0  0  0  0  0  0  0  0  0  0  0
   27.9980   13.3320   22.4170 C   0  0  3  0  0  0  0  0  0  0  0  0
   29.0320   13.6410   22.5690 H   0  0  0  0  0  0  0  0  0  0  0  0
   16.0490    9.3610   24.5570 C   0  0  0  0  0  0  0  0  0  0  0  0
   15.6890    8.8420   23.6690 H   0  0  0  0  0  0  0  0  0  0  0  0
   15.2230    9.5050   25.2530 H   0  0  0  0  0  0  0  0  0  0  0  0
   16.8280    8.7670   25.0350 H   0  0  0  0  0  0  0  0  0  0  0  0
   25.5880   16.1920   25.2840 C   0  0  0  0  0  0  0  0  0  0  0  0
   25.5430   15.8240   26.3090 H   0  0  0  0  0  0  0  0  0  0  0  0
   26.5550   15.9390   24.8500 H   0  0  0  0  0  0  0  0  0  0  0  0
   23.2770   10.0620   22.1220 C   0  0  0  0  0  0  0  0  0  0  0  0
   24.0490    9.4200   22.5450 H   0  0  0  0  0  0  0  0  0  0  0  0
   22.4480    9.4490   21.7690 H   0  0  0  0  0  0  0  0  0  0  0  0
   27.8650   11.8720   21.9640 C   0  0  0  0  0  0  0  0  0  0  0  0
   27.2960   11.8870   21.0340 H   0  0  0  0  0  0  0  0  0  0  0  0
   27.2490   11.2090   23.1700 C   0  0  0  0  0  0  0  0  0  0  0  0
   27.1030   10.1480   22.9660 H   0  0  0  0  0  0  0  0  0  0  0  0
   26.2870   11.6720   23.3880 H   0  0  0  0  0  0  0  0  0  0  0  0
   27.9110   11.3260   24.0270 H   0  0  0  0  0  0  0  0  0  0  0  0
   16.6220   10.7260   24.1550 C   0  0  0  0  0  0  0  0  0  0  0  0
   15.8370   11.3080   23.6720 H   0  0  0  0  0  0  0  0  0  0  0  0
   17.4420   10.5700   23.4540 H   0  0  0  0  0  0  0  0  0  0  0  0
   24.4840   15.5150   24.4650 C   0  0  0  0  0  0  0  0  0  0  0  0
   24.4070   15.9970   23.4900 H   0  0  0  0  0  0  0  0  0  0  0  0
   23.5340   15.6050   24.9910 H   0  0  0  0  0  0  0  0  0  0  0  0
   17.1490   11.5140   25.3650 C   0  0  0  0  0  0  0  0  0  0  0  0
   16.4130   11.4910   26.1690 H   0  0  0  0  0  0  0  0  0  0  0  0
   17.3390   12.5480   25.0770 H   0  0  0  0  0  0  0  0  0  0  0  0
   24.8240   14.0400   24.2780 C   0  0  3  0  0  0  0  0  0  0  0  0
   25.1090   13.7090   25.2770 H   0  0  0  0  0  0  0  0  0  0  0  0
   22.2260   10.1380   24.4290 C   0  0  3  0  0  0  0  0  0  0  0  0
   23.1120    9.6280   24.8060 H   0  0  0  0  0  0  0  0  0  0  0  0
   29.0960   11.0120   21.7030 C   0  0  0  0  0  0  0  0  0  0  0  0
   29.6680   11.3510   20.8390 H   0  0  0  0  0  0  0  0  0  0  0  0
   29.7390   11.0460   22.5830 H   0  0  0  0  0  0  0  0  0  0  0  0
   28.7740    9.9850   21.5280 H   0  0  0  0  0  0  0  0  0  0  0  0
   22.7500   10.9840   23.2440 C   0  0  3  0  0  0  0  0  0  0  0  0
   21.9310   11.5870   22.8520 H   0  0  0  0  0  0  0  0  0  0  0  0
   21.0040   10.0590   26.6180 N   0  3  0  0  0  0  0  0  0  0  0  0
   20.4440    9.3410   26.1810 H   0  0  0  0  0  0  0  0  0  0  0  0
   21.6960    9.6290   27.2150 H   0  0  0  0  0  0  0  0  0  0  0  0
   25.9260   13.8440   23.3410 N   0  0  0  0  0  0  0  0  0  0  0  0
   23.8270   11.8630   23.7040 N   0  0  0  0  0  0  0  0  0  0  0  0
   24.7190   11.4580   23.9510 H   0  0  0  0  0  0  0  0  0  0  0  0
   27.5680   13.2710   24.7900 O   0  0  0  0  0  0  0  0  0  0  0  0
   22.5950   13.7100   23.5250 O   0  0  0  0  0  0  0  0  0  0  0  0
   21.2320    9.2070   23.9900 O   0  0  0  0  0  0  0  0  0  0  0  0
   20.4810    9.7130   23.6710 H   0  0  0  0  0  0  0  0  0  0  0  0
   18.3730   10.8990   25.8080 O   0  0  0  0  0  0  0  0  0  0  0  0
   23.0210   13.5220   18.6820 F   0  0  0  0  0  0  0  0  0  0  0  0
   26.8390   10.7710   18.7780 F   0  0  0  0  0  0  0  0  0  0  0  0
  1  2  1  0  0  0  0
  1  3  2  0  0  0  0
  1  5  1  0  0  0  0
  3  4  1  0  0  0  0
  3  7  1  0  0  0  0
  5  6  1  0  0  0  0
  5  9  2  0  0  0  0
  7  8  1  0  0  0  0
  7 17  2  0  0  0  0
  9 10  1  0  0  0  0
  9 17  1  0  0  0  0
 11 12  1  0  0  0  0
 11 18  2  0  0  0  0
 11 19  1  0  0  0  0
 13 14  1  0  0  0  0
 13 18  1  0  0  0  0
 13 20  2  0  0  0  0
 15 16  1  0  0  0  0
 15 19  2  0  0  0  0
 15 20  1  0  0  0  0
 17 45  1  0  0  0  0
 18 48  1  0  0  0  0
 19 87  1  0  0  0  0
 20 88  1  0  0  0  0
 21 39  1  0  0  0  0
 21 79  1  0  0  0  0
 21 82  2  0  0  0  0
 22 66  1  0  0  0  0
 22 80  1  0  0  0  0
 22 83  2  0  0  0  0
 23 24  1  0  0  0  0
 23 25  1  0  0  0  0
 23 29  1  0  0  0  0
 23 39  1  0  0  0  0
 26 27  1  0  0  0  0
 26 28  1  0  0  0  0
 26 35  1  0  0  0  0
 26 37  1  0  0  0  0
 29 30  1  0  0  0  0
 29 31  1  0  0  0  0
 29 79  1  0  0  0  0
 32 33  1  0  0  0  0
 32 34  1  0  0  0  0
 32 35  1  0  0  0  0
 32 76  1  0  0  0  0
 35 36  1  0  0  0  0
 35 86  1  0  0  0  0
 37 38  1  0  0  0  0
 37 68  1  0  0  0  0
 37 76  1  0  0  0  0
 39 40  1  0  0  0  0
 39 51  1  0  0  0  0
 41 42  1  0  0  0  0
 41 43  1  0  0  0  0
 41 44  1  0  0  0  0
 41 57  1  0  0  0  0
 45 46  1  0  0  0  0
 45 47  1  0  0  0  0
 45 60  1  0  0  0  0
 48 49  1  0  0  0  0
 48 50  1  0  0  0  0
 48 74  1  0  0  0  0
 51 52  1  0  0  0  0
 51 53  1  0  0  0  0
 51 70  1  0  0  0  0
 53 54  1  0  0  0  0
 53 55  1  0  0  0  0
 53 56  1  0  0  0  0
 57 58  1  0  0  0  0
 57 59  1  0  0  0  0
 57 63  1  0  0  0  0
 60 61  1  0  0  0  0
 60 62  1  0  0  0  0
 60 66  1  0  0  0  0
 63 64  1  0  0  0  0
 63 65  1  0  0  0  0
 63 86  1  0  0  0  0
 66 67  1  0  0  0  0
 66 79  1  0  0  0  0
 68 69  1  0  0  0  0
 68 74  1  0  0  0  0
 68 84  1  0  0  0  0
 70 71  1  0  0  0  0
 70 72  1  0  0  0  0
 70 73  1  0  0  0  0
 74 75  1  0  0  0  0
 74 80  1  0  0  0  0
 76 77  1  0  0  0  0
 76 78  1  0  0  0  0
 80 81  1  0  0  0  0
 84 85  1  0  0  0  0
M  CHG  1  76   1
M  END
>  <PARENT_CMPD_ID>
CHEMBL1915993

>  <STANDARD_TYPE>
IC50

>  <RELATION>
=

>  <STANDARD_VALUE>
21

>  <STANDARD_UNITS>
nM

>  <COMPOUND_KEY>
28d

>  <PUBMED_ID>
21782431

>  <JOURNAL>
Bioorg.Med.Chem.Lett.

>  <YEAR>
2011

>  <VOLUME>
21

>  <FIRST_PAGE>
6916

>  <Company>
BMS

>  <idx>
522

>  <Model>
Valid

>  <target>
7.6777806

>  <des_pred_mlr>
7.3516698

>  <RF_Canvas>
7.6810212

>  <DNN_Canvas>
7.6234584

>  <pred_CoMFA>
8.0101995

>  <pred_COMSIA>
7.7832999

>  <pred_abm5>
8.6410208

>  <pred_ff8>
7.4988179

>  <pred_gau6>
8.027586

>  <CID>
BACE_522

>  <active>
1

>  <des_class_bayes>
1

>  <maacs_class_bayes>
1

>  <radial_class_bayes>
0

>  <dend_class_bayes>
1

>  <molprint_class_bayes>
1

>  <RF_canvas>
1

>  <DNN_canvas>
1

$$$$
23981898_17l
  MOE2015           3D

 75 77  0  0  1  0  0  0  0  0999 V2000
   28.6350    9.0430   21.0010 F   0  0  0  0  0  0  0  0  0  0  0  0
   29.2830   10.2130   20.8580 C   0  0  0  0  0  0  0  0  0  0  0  0
   30.0800   10.3560   21.9340 F   0  0  0  0  0  0  0  0  0  0  0  0
   30.0780   10.1160   19.7810 F   0  0  0  0  0  0  0  0  0  0  0  0
   28.3070   11.3680   20.7450 C   0  0  3  0  0  0  0  0  0  0  0  0
   27.5280   11.1960   19.5470 O   0  0  0  0  0  0  0  0  0  0  0  0
   26.1670   11.2260   19.7160 C   0  0  0  0  0  0  0  0  0  0  0  0
   25.4390   12.0340   18.8390 C   0  0  0  0  0  0  0  0  0  0  0  0
   24.0520   12.0540   18.9720 C   0  0  0  0  0  0  0  0  0  0  0  0
   23.3950   11.3090   19.9440 C   0  0  0  0  0  0  0  0  0  0  0  0
   24.1210   10.5020   20.8170 C   0  0  0  0  0  0  0  0  0  0  0  0
   25.5100   10.4410   20.6710 C   0  0  0  0  0  0  0  0  0  0  0  0
   23.4390    9.7780   21.9540 C   0  0  0  0  0  0  0  0  0  0  0  0
   22.8840   10.7450   23.0190 C   0  0  3  0  0  0  0  0  0  0  0  0
   22.2040   10.0140   24.2020 C   0  0  3  0  0  0  0  0  0  0  0  0
   21.5800   10.9940   25.2250 C   0  0  3  0  0  0  0  0  0  0  0  0
   22.5790   11.9850   25.8010 C   0  0  0  0  0  0  0  0  0  0  0  0
   23.2880   13.0310   24.5150 S   0  0  0  0  0  0  0  0  0  0  0  0
   23.9820   11.6700   23.5470 C   0  0  0  0  0  0  0  0  0  0  0  0
   22.1630   13.6140   23.7170 O   0  0  0  0  0  0  0  0  0  0  0  0
   20.9950   10.1600   26.3540 N   0  3  0  0  0  0  0  0  0  0  0  0
   20.0670   10.8590   27.2980 C   0  0  0  0  0  0  0  0  0  0  0  0
   18.9340   11.5220   26.6360 C   0  0  0  0  0  0  0  0  0  0  0  0
   18.5940   12.8870   26.6130 C   0  0  0  0  0  0  0  0  0  0  0  0
   19.0920   13.7230   27.0870 H   0  0  0  0  0  0  0  0  0  0  0  0
   21.1690    9.1340   23.7490 O   0  0  0  0  0  0  0  0  0  0  0  0
   23.3240   12.8240   18.1550 F   0  0  0  0  0  0  0  0  0  0  0  0
   26.0790   12.7990   17.8750 N   0  0  0  0  0  0  0  0  0  0  0  0
   29.0860   12.6770   20.6430 C   0  0  0  0  0  0  0  0  0  0  0  0
   28.1650   13.7670   20.6190 O   0  0  0  0  0  0  0  0  0  0  0  0
   28.8150   15.0170   20.7850 C   0  0  0  0  0  0  0  0  0  0  0  0
   27.6800   11.4130   21.6440 H   0  0  0  0  0  0  0  0  0  0  0  0
   22.3140   11.3850   20.0160 H   0  0  0  0  0  0  0  0  0  0  0  0
   26.0870    9.7830   21.3160 H   0  0  0  0  0  0  0  0  0  0  0  0
   24.1380    9.0740   22.4240 H   0  0  0  0  0  0  0  0  0  0  0  0
   22.6300    9.1670   21.5350 H   0  0  0  0  0  0  0  0  0  0  0  0
   22.1090   11.3440   22.5200 H   0  0  0  0  0  0  0  0  0  0  0  0
   22.9460    9.3840   24.7080 H   0  0  0  0  0  0  0  0  0  0  0  0
   20.7380   11.5040   24.7440 H   0  0  0  0  0  0  0  0  0  0  0  0
   23.3980   11.4760   26.3220 H   0  0  0  0  0  0  0  0  0  0  0  0
   22.1010   12.6620   26.5160 H   0  0  0  0  0  0  0  0  0  0  0  0
   24.5330   12.1640   22.7420 H   0  0  0  0  0  0  0  0  0  0  0  0
   24.7100   11.1300   24.1620 H   0  0  0  0  0  0  0  0  0  0  0  0
   21.7320    9.6770   26.8850 H   0  0  0  0  0  0  0  0  0  0  0  0
   20.4710    9.4040   25.8810 H   0  0  0  0  0  0  0  0  0  0  0  0
   20.6700   11.5610   27.8820 H   0  0  0  0  0  0  0  0  0  0  0  0
   19.7070   10.0870   27.9860 H   0  0  0  0  0  0  0  0  0  0  0  0
   20.6460    9.5810   23.0560 H   0  0  0  0  0  0  0  0  0  0  0  0
   25.5460   13.3650   17.2290 H   0  0  0  0  0  0  0  0  0  0  0  0
   27.0910   12.7820   17.8340 H   0  0  0  0  0  0  0  0  0  0  0  0
   29.6740   12.7090   19.7170 H   0  0  0  0  0  0  0  0  0  0  0  0
   29.7600   12.7850   21.5010 H   0  0  0  0  0  0  0  0  0  0  0  0
   28.0620   15.8080   20.7220 H   0  0  0  0  0  0  0  0  0  0  0  0
   29.5530   15.1740   19.9930 H   0  0  0  0  0  0  0  0  0  0  0  0
   29.2970   15.0720   21.7660 H   0  0  0  0  0  0  0  0  0  0  0  0
   17.9690   10.9220   25.8670 C   0  0  0  0  0  0  0  0  0  0  0  0
   17.8420    9.8830   25.6100 H   0  0  0  0  0  0  0  0  0  0  0  0
   17.5020   13.1230   25.8910 N   0  0  0  0  0  0  0  0  0  0  0  0
   17.1380   11.9040   25.4470 N   0  0  0  0  0  0  0  0  0  0  0  0
   15.9610   11.8190   24.6240 C   0  0  0  0  0  0  0  0  0  0  0  0
   16.1440   12.5040   23.7840 H   0  0  0  0  0  0  0  0  0  0  0  0
   15.1580   12.2700   25.2240 H   0  0  0  0  0  0  0  0  0  0  0  0
   15.4630   10.4680   24.0660 C   0  0  0  0  0  0  0  0  0  0  0  0
   15.0910    9.4660   25.1600 C   0  0  0  0  0  0  0  0  0  0  0  0
   14.1760   10.7850   23.2850 C   0  0  0  0  0  0  0  0  0  0  0  0
   16.4540    9.8420   23.0830 C   0  0  0  0  0  0  0  0  0  0  0  0
   14.4260    9.9240   25.9020 H   0  0  0  0  0  0  0  0  0  0  0  0
   15.9510    9.0620   25.6960 H   0  0  0  0  0  0  0  0  0  0  0  0
   14.5610    8.6040   24.7380 H   0  0  0  0  0  0  0  0  0  0  0  0
   13.4090   11.2220   23.9360 H   0  0  0  0  0  0  0  0  0  0  0  0
   13.7470    9.8810   22.8360 H   0  0  0  0  0  0  0  0  0  0  0  0
   14.3650   11.4950   22.4710 H   0  0  0  0  0  0  0  0  0  0  0  0
   17.3800    9.5110   23.5570 H   0  0  0  0  0  0  0  0  0  0  0  0
   16.7260   10.5510   22.2930 H   0  0  0  0  0  0  0  0  0  0  0  0
   16.0190    8.9610   22.5950 H   0  0  0  0  0  0  0  0  0  0  0  0
  1  2  1  0  0  0  0
  2  3  1  0  0  0  0
  2  4  1  0  0  0  0
  2  5  1  0  0  0  0
  5  6  1  0  0  0  0
  5 29  1  0  0  0  0
  5 32  1  0  0  0  0
  6  7  1  0  0  0  0
  7  8  1  0  0  0  0
  7 12  2  0  0  0  0
  8  9  2  0  0  0  0
  8 28  1  0  0  0  0
  9 10  1  0  0  0  0
  9 27  1  0  0  0  0
 10 11  2  0  0  0  0
 10 33  1  0  0  0  0
 11 12  1  0  0  0  0
 11 13  1  0  0  0  0
 12 34  1  0  0  0  0
 13 14  1  0  0  0  0
 13 35  1  0  0  0  0
 13 36  1  0  0  0  0
 14 15  1  0  0  0  0
 14 19  1  0  0  0  0
 14 37  1  0  0  0  0
 15 16  1  0  0  0  0
 15 26  1  0  0  0  0
 15 38  1  0  0  0  0
 16 17  1  0  0  0  0
 16 21  1  0  0  0  0
 16 39  1  0  0  0  0
 17 18  1  0  0  0  0
 17 40  1  0  0  0  0
 17 41  1  0  0  0  0
 18 19  1  0  0  0  0
 18 20  2  0  0  0  0
 19 42  1  0  0  0  0
 19 43  1  0  0  0  0
 21 22  1  0  0  0  0
 21 44  1  0  0  0  0
 21 45  1  0  0  0  0
 22 23  1  0  0  0  0
 22 46  1  0  0  0  0
 22 47  1  0  0  0  0
 23 24  1  0  0  0  0
 23 56  2  0  0  0  0
 24 25  1  0  0  0  0
 24 58  2  0  0  0  0
 26 48  1  0  0  0  0
 28 49  1  0  0  0  0
 28 50  1  0  0  0  0
 29 30  1  0  0  0  0
 29 51  1  0  0  0  0
 29 52  1  0  0  0  0
 30 31  1  0  0  0  0
 31 53  1  0  0  0  0
 31 54  1  0  0  0  0
 31 55  1  0  0  0  0
 56 57  1  0  0  0  0
 56 59  1  0  0  0  0
 58 59  1  0  0  0  0
 59 60  1  0  0  0  0
 60 61  1  0  0  0  0
 60 62  1  0  0  0  0
 60 63  1  0  0  0  0
 63 64  1  0  0  0  0
 63 65  1  0  0  0  0
 63 66  1  0  0  0  0
 64 67  1  0  0  0  0
 64 68  1  0  0  0  0
 64 69  1  0  0  0  0
 65 70  1  0  0  0  0
 65 71  1  0  0  0  0
 65 72  1  0  0  0  0
 66 73  1  0  0  0  0
 66 74  1  0  0  0  0
 66 75  1  0  0  0  0
M  CHG  1  21   1
M  END
>  <PARENT_CMPD_ID>
23981898_17l

>  <STANDARD_TYPE>
IC50

>  <RELATION>
=

>  <STANDARD_VALUE>
0.021

>  <STANDARD_UNITS>
uM

>  <COMPOUND_KEY>
17l

>  <PUBMED_ID>
23981898

>  <JOURNAL>
Bioorg.Med.Chem.Lett.

>  <YEAR>
2013

>  <VOLUME>
23

>  <FIRST_PAGE>
5300

>  <Company>
Novartis

>  <idx>
523

>  <Model>
Valid

>  <target>
7.6777806

>  <des_pred_mlr>
7.26788

>  <RF_Canvas>
7.7985144

>  <DNN_Canvas>
8.1521988

>  <pred_CoMFA>
8.4644003

>  <pred_COMSIA>
7.3558998

>  <pred_abm5>
7.9637761

>  <pred_ff8>
7.8831811

>  <pred_gau6>
8.0281906

>  <CID>
BACE_523

>  <active>
1

>  <des_class_bayes>
0

>  <maacs_class_bayes>
1

>  <radial_class_bayes>
1

>  <dend_class_bayes>
1

>  <molprint_class_bayes>
1

>  <RF_canvas>
1

>  <DNN_canvas>
1

$$$$
CHEMBL557554
  MOE2015           3D

 92 95  0  0  1  0  0  0  0  0999 V2000
   25.3540   17.2720   29.2100 C   0  0  0  0  0  0  0  0  0  0  0  0
   26.2100   16.5370   28.1890 C   0  0  0  0  0  0  0  0  0  0  0  0
   26.8470   17.4690   27.1540 C   0  0  0  0  0  0  0  0  0  0  0  0
   25.8520   18.1430   26.3090 N   0  0  0  0  0  0  0  0  0  0  0  0
   25.6720   19.5810   26.5290 C   0  0  0  0  0  0  0  0  0  0  0  0
   26.6750   20.3920   25.7090 C   0  0  0  0  0  0  0  0  0  0  0  0
   26.4990   21.8850   25.9320 C   0  0  0  0  0  0  0  0  0  0  0  0
   25.0310   17.5220   25.3720 C   0  0  0  0  0  0  0  0  0  0  0  0
   23.9770   18.0160   24.9670 O   0  0  0  0  0  0  0  0  0  0  0  0
   25.4130   16.2270   24.7790 C   0  0  0  0  0  0  0  0  0  0  0  0
   26.7050   15.9590   24.3560 C   0  0  0  0  0  0  0  0  0  0  0  0
   26.9840   14.7650   23.7060 C   0  0  0  0  0  0  0  0  0  0  0  0
   28.2970   14.5200   23.4150 O   0  0  0  0  0  0  0  0  0  0  0  0
   28.5870   14.1330   22.1330 C   0  0  0  0  0  0  0  0  0  0  0  0
   28.1540   14.8680   21.0300 C   0  0  0  0  0  0  0  0  0  0  0  0
   28.5240   14.4580   19.7670 C   0  0  0  0  0  0  0  0  0  0  0  0
   29.3210   13.3220   19.6320 C   0  0  0  0  0  0  0  0  0  0  0  0
   29.6770   12.9230   18.4040 F   0  0  0  0  0  0  0  0  0  0  0  0
   29.7670   12.5930   20.7300 C   0  0  0  0  0  0  0  0  0  0  0  0
   29.4060   13.0150   21.9920 C   0  0  0  0  0  0  0  0  0  0  0  0
   25.9800   13.8480   23.4270 C   0  0  0  0  0  0  0  0  0  0  0  0
   24.6780   14.1420   23.8060 C   0  0  0  0  0  0  0  0  0  0  0  0
   24.3970   15.3240   24.4850 C   0  0  0  0  0  0  0  0  0  0  0  0
   23.5450   13.2560   23.4840 C   0  0  0  0  0  0  0  0  0  0  0  0
   22.4060   13.6980   23.3900 O   0  0  0  0  0  0  0  0  0  0  0  0
   23.8200   11.9150   23.3760 N   0  0  0  0  0  0  0  0  0  0  0  0
   22.7830   10.9520   23.0120 C   0  0  3  0  0  0  0  0  0  0  0  0
   23.3090   10.0100   21.9160 C   0  0  0  0  0  0  0  0  0  0  0  0
   23.8640   10.7620   20.7280 C   0  0  0  0  0  0  0  0  0  0  0  0
   23.0910   11.6950   20.0340 C   0  0  0  0  0  0  0  0  0  0  0  0
   23.6470   12.4310   18.9970 C   0  0  0  0  0  0  0  0  0  0  0  0
   22.8990   13.3390   18.3690 F   0  0  0  0  0  0  0  0  0  0  0  0
   24.9570   12.2480   18.6100 C   0  0  0  0  0  0  0  0  0  0  0  0
   25.7130   11.3100   19.2790 C   0  0  0  0  0  0  0  0  0  0  0  0
   26.9820   11.1160   18.9190 F   0  0  0  0  0  0  0  0  0  0  0  0
   25.1860   10.5690   20.3270 C   0  0  0  0  0  0  0  0  0  0  0  0
   22.2900   10.2420   24.2950 C   0  0  3  0  0  0  0  0  0  0  0  0
   23.4050    9.7130   25.0160 O   0  0  0  0  0  0  0  0  0  0  0  0
   21.6140   11.2820   25.1970 C   0  0  0  0  0  0  0  0  0  0  0  0
   21.1840   10.7150   26.5130 N   0  3  0  0  0  0  0  0  0  0  0  0
   19.8180   10.1580   26.6220 C   0  0  0  0  0  0  0  0  0  0  0  0
   18.7210   11.0490   26.1140 C   0  0  0  0  0  0  0  0  0  0  0  0
   18.6210   12.4060   26.4210 C   0  0  0  0  0  0  0  0  0  0  0  0
   17.6150   13.1820   25.8520 C   0  0  0  0  0  0  0  0  0  0  0  0
   16.6790   12.6050   24.9970 C   0  0  0  0  0  0  0  0  0  0  0  0
   16.7450   11.2440   24.7180 C   0  0  0  0  0  0  0  0  0  0  0  0
   15.9120   10.5180   23.9200 O   0  0  0  0  0  0  0  0  0  0  0  0
   14.8900   11.2440   23.2560 C   0  0  0  0  0  0  0  0  0  0  0  0
   17.7590   10.4820   25.2810 C   0  0  0  0  0  0  0  0  0  0  0  0
   24.9830   16.5710   29.9640 H   0  0  0  0  0  0  0  0  0  0  0  0
   24.4880   17.7440   28.7380 H   0  0  0  0  0  0  0  0  0  0  0  0
   25.9340   18.0460   29.7230 H   0  0  0  0  0  0  0  0  0  0  0  0
   25.6000   15.7720   27.6960 H   0  0  0  0  0  0  0  0  0  0  0  0
   27.0110   16.0090   28.7210 H   0  0  0  0  0  0  0  0  0  0  0  0
   27.5390   16.8910   26.5440 H   0  0  0  0  0  0  0  0  0  0  0  0
   27.4570   18.2250   27.6620 H   0  0  0  0  0  0  0  0  0  0  0  0
   24.6550   19.8780   26.2490 H   0  0  0  0  0  0  0  0  0  0  0  0
   25.7800   19.7910   27.5990 H   0  0  0  0  0  0  0  0  0  0  0  0
   27.6990   20.1050   25.9750 H   0  0  0  0  0  0  0  0  0  0  0  0
   26.5520   20.1670   24.6420 H   0  0  0  0  0  0  0  0  0  0  0  0
   26.6500   22.1440   26.9850 H   0  0  0  0  0  0  0  0  0  0  0  0
   25.4960   22.2100   25.6380 H   0  0  0  0  0  0  0  0  0  0  0  0
   27.2270   22.4460   25.3370 H   0  0  0  0  0  0  0  0  0  0  0  0
   27.5020   16.6870   24.4790 H   0  0  0  0  0  0  0  0  0  0  0  0
   27.5490   15.7620   21.1530 H   0  0  0  0  0  0  0  0  0  0  0  0
   28.2090   15.0030   18.8830 H   0  0  0  0  0  0  0  0  0  0  0  0
   30.3910   11.7180   20.5830 H   0  0  0  0  0  0  0  0  0  0  0  0
   29.7560   12.4770   22.8680 H   0  0  0  0  0  0  0  0  0  0  0  0
   26.2240   12.9370   22.8910 H   0  0  0  0  0  0  0  0  0  0  0  0
   23.3700   15.5620   24.7610 H   0  0  0  0  0  0  0  0  0  0  0  0
   24.7460   11.5540   23.5710 H   0  0  0  0  0  0  0  0  0  0  0  0
   21.9250   11.4950   22.5940 H   0  0  0  0  0  0  0  0  0  0  0  0
   24.0900    9.3610   22.3310 H   0  0  0  0  0  0  0  0  0  0  0  0
   22.5050    9.3480   21.5720 H   0  0  0  0  0  0  0  0  0  0  0  0
   22.0550   11.8830   20.3010 H   0  0  0  0  0  0  0  0  0  0  0  0
   25.3820   12.8260   17.7980 H   0  0  0  0  0  0  0  0  0  0  0  0
   25.8280    9.8490   20.8270 H   0  0  0  0  0  0  0  0  0  0  0  0
   21.5960    9.4280   24.0590 H   0  0  0  0  0  0  0  0  0  0  0  0
   23.7760    8.9670   24.5090 H   0  0  0  0  0  0  0  0  0  0  0  0
   20.7660   11.7650   24.7080 H   0  0  0  0  0  0  0  0  0  0  0  0
   22.3270   12.0550   25.4950 H   0  0  0  0  0  0  0  0  0  0  0  0
   21.8920   10.0060   26.7630 H   0  0  0  0  0  0  0  0  0  0  0  0
   21.2820   11.4490   27.2250 H   0  0  0  0  0  0  0  0  0  0  0  0
   19.8440    9.2060   26.0790 H   0  0  0  0  0  0  0  0  0  0  0  0
   19.6540    9.9350   27.6820 H   0  0  0  0  0  0  0  0  0  0  0  0
   19.3310   12.8870   27.0890 H   0  0  0  0  0  0  0  0  0  0  0  0
   17.5580   14.2450   26.0770 H   0  0  0  0  0  0  0  0  0  0  0  0
   15.9070   13.2400   24.5750 H   0  0  0  0  0  0  0  0  0  0  0  0
   14.3240   10.5380   22.6400 H   0  0  0  0  0  0  0  0  0  0  0  0
   15.3110   12.0030   22.5890 H   0  0  0  0  0  0  0  0  0  0  0  0
   14.1930   11.6920   23.9720 H   0  0  0  0  0  0  0  0  0  0  0  0
   17.7940    9.4200   25.0390 H   0  0  0  0  0  0  0  0  0  0  0  0
  1  2  1  0  0  0  0
  1 50  1  0  0  0  0
  1 51  1  0  0  0  0
  1 52  1  0  0  0  0
  2  3  1  0  0  0  0
  2 53  1  0  0  0  0
  2 54  1  0  0  0  0
  3  4  1  0  0  0  0
  3 55  1  0  0  0  0
  3 56  1  0  0  0  0
  4  5  1  0  0  0  0
  4  8  1  0  0  0  0
  5  6  1  0  0  0  0
  5 57  1  0  0  0  0
  5 58  1  0  0  0  0
  6  7  1  0  0  0  0
  6 59  1  0  0  0  0
  6 60  1  0  0  0  0
  7 61  1  0  0  0  0
  7 62  1  0  0  0  0
  7 63  1  0  0  0  0
  8  9  2  0  0  0  0
  8 10  1  0  0  0  0
 10 11  1  0  0  0  0
 10 23  2  0  0  0  0
 11 12  2  0  0  0  0
 11 64  1  0  0  0  0
 12 13  1  0  0  0  0
 12 21  1  0  0  0  0
 13 14  1  0  0  0  0
 14 15  1  0  0  0  0
 14 20  2  0  0  0  0
 15 16  2  0  0  0  0
 15 65  1  0  0  0  0
 16 17  1  0  0  0  0
 16 66  1  0  0  0  0
 17 18  1  0  0  0  0
 17 19  2  0  0  0  0
 19 20  1  0  0  0  0
 19 67  1  0  0  0  0
 20 68  1  0  0  0  0
 21 22  2  0  0  0  0
 21 69  1  0  0  0  0
 22 23  1  0  0  0  0
 22 24  1  0  0  0  0
 23 70  1  0  0  0  0
 24 25  2  0  0  0  0
 24 26  1  0  0  0  0
 26 27  1  0  0  0  0
 26 71  1  0  0  0  0
 27 28  1  0  0  0  0
 27 37  1  0  0  0  0
 27 72  1  0  0  0  0
 28 29  1  0  0  0  0
 28 73  1  0  0  0  0
 28 74  1  0  0  0  0
 29 30  1  0  0  0  0
 29 36  2  0  0  0  0
 30 31  2  0  0  0  0
 30 75  1  0  0  0  0
 31 32  1  0  0  0  0
 31 33  1  0  0  0  0
 33 34  2  0  0  0  0
 33 76  1  0  0  0  0
 34 35  1  0  0  0  0
 34 36  1  0  0  0  0
 36 77  1  0  0  0  0
 37 38  1  0  0  0  0
 37 39  1  0  0  0  0
 37 78  1  0  0  0  0
 38 79  1  0  0  0  0
 39 40  1  0  0  0  0
 39 80  1  0  0  0  0
 39 81  1  0  0  0  0
 40 41  1  0  0  0  0
 40 82  1  0  0  0  0
 40 83  1  0  0  0  0
 41 42  1  0  0  0  0
 41 84  1  0  0  0  0
 41 85  1  0  0  0  0
 42 43  1  0  0  0  0
 42 49  2  0  0  0  0
 43 44  2  0  0  0  0
 43 86  1  0  0  0  0
 44 45  1  0  0  0  0
 44 87  1  0  0  0  0
 45 46  2  0  0  0  0
 45 88  1  0  0  0  0
 46 47  1  0  0  0  0
 46 49  1  0  0  0  0
 47 48  1  0  0  0  0
 48 89  1  0  0  0  0
 48 90  1  0  0  0  0
 48 91  1  0  0  0  0
 49 92  1  0  0  0  0
M  CHG  1  40   1
M  END
>  <PARENT_CMPD_ID>
CHEMBL557554

>  <STANDARD_TYPE>
IC50

>  <RELATION>
=

>  <STANDARD_VALUE>
22

>  <STANDARD_UNITS>
nM

>  <COMPOUND_KEY>
7d

>  <PUBMED_ID>
19375914

>  <JOURNAL>
Bioorg. Med. Chem. Lett.

>  <YEAR>
2009

>  <VOLUME>
19

>  <FIRST_PAGE>
2654

>  <Company>
BMS

>  <idx>
524

>  <Model>
Valid

>  <target>
7.6575775

>  <des_pred_mlr>
8.3418102

>  <RF_Canvas>
7.6920958

>  <DNN_Canvas>
7.5457835

>  <pred_CoMFA>
6.9777002

>  <pred_COMSIA>
8.3149996

>  <pred_abm5>
6.8609962

>  <pred_ff8>
5.9642768

>  <pred_gau6>
7.0698295

>  <CID>
BACE_524

>  <active>
1

>  <des_class_bayes>
1

>  <maacs_class_bayes>
1

>  <radial_class_bayes>
1

>  <dend_class_bayes>
1

>  <molprint_class_bayes>
1

>  <RF_canvas>
1

>  <DNN_canvas>
1

$$$$
CHEMBL556660
  MOE2015           3D

 76 79  0  0  1  0  0  0  0  0999 V2000
   18.1870   13.2870   25.9800 C   0  0  0  0  0  0  0  0  0  0  0  0
   19.3520   12.4210   26.4330 C   0  0  0  0  0  0  0  0  0  0  0  0
   19.4870   11.1610   25.5870 C   0  0  3  0  0  0  0  0  0  0  0  0
   18.3200   10.2120   25.7960 C   0  0  0  0  0  0  0  0  0  0  0  0
   20.7650   10.4240   25.9290 N   0  3  0  0  0  0  0  0  0  0  0  0
   22.0130   10.9870   25.2840 C   0  0  0  0  0  0  0  0  0  0  0  0
   22.5250   10.0000   24.2170 C   0  0  1  0  0  0  0  0  0  0  0  0
   21.4100    9.1720   23.8580 O   0  0  0  0  0  0  0  0  0  0  0  0
   23.1040   10.7320   22.9800 C   0  0  3  0  0  0  0  0  0  0  0  0
   23.3940    9.7810   21.7930 C   0  0  0  0  0  0  0  0  0  0  0  0
   24.2340   10.4020   20.7020 C   0  0  0  0  0  0  0  0  0  0  0  0
   25.4530    9.8260   20.3420 C   0  0  0  0  0  0  0  0  0  0  0  0
   26.2590   10.4190   19.3780 C   0  0  0  0  0  0  0  0  0  0  0  0
   25.8590   11.5950   18.7640 C   0  0  0  0  0  0  0  0  0  0  0  0
   24.6460   12.1710   19.1060 C   0  0  0  0  0  0  0  0  0  0  0  0
   23.8330   11.5730   20.0600 C   0  0  0  0  0  0  0  0  0  0  0  0
   24.3210   11.4720   23.3030 N   0  0  0  0  0  0  0  0  0  0  0  0
   24.3320   12.8350   23.5170 C   0  0  0  0  0  0  0  0  0  0  0  0
   23.3060   13.4950   23.6100 O   0  0  0  0  0  0  0  0  0  0  0  0
   25.6800   13.4600   23.5690 C   0  0  0  0  0  0  0  0  0  0  0  0
   25.8990   14.5590   24.3930 C   0  0  0  0  0  0  0  0  0  0  0  0
   27.1570   15.1680   24.4610 C   0  0  0  0  0  0  0  0  0  0  0  0
   27.4040   16.3870   25.1910 N   0  0  0  0  0  0  0  0  0  0  0  0
   26.4760   16.7740   26.2600 C   0  0  0  0  0  0  0  0  0  0  0  0
   27.9550   17.6790   24.1880 S   0  0  0  0  0  0  0  0  0  0  0  0
   27.7600   18.9370   24.8830 O   0  0  0  0  0  0  0  0  0  0  0  0
   27.4060   17.5000   22.8570 O   0  0  0  0  0  0  0  0  0  0  0  0
   29.7210   17.3730   24.1290 C   0  0  0  0  0  0  0  0  0  0  0  0
   30.1390   15.9510   24.4050 C   0  0  0  0  0  0  0  0  0  0  0  0
   29.4910   14.9800   23.5530 N   0  0  0  0  0  0  0  0  0  0  0  0
   30.0880   14.2760   22.5570 C   0  0  0  0  0  0  0  0  0  0  0  0
   29.1740   13.3750   22.0610 C   0  0  0  0  0  0  0  0  0  0  0  0
   29.4160   12.3870   20.9790 C   0  0  0  0  0  0  0  0  0  0  0  0
   29.6410   10.9880   21.5090 C   0  0  0  0  0  0  0  0  0  0  0  0
   27.9630   13.5820   22.7770 C   0  0  0  0  0  0  0  0  0  0  0  0
   26.6960   12.9880   22.7330 C   0  0  0  0  0  0  0  0  0  0  0  0
   28.1720   14.6230   23.6660 C   0  0  0  0  0  0  0  0  0  0  0  0
   18.1870   14.2310   26.5350 H   0  0  0  0  0  0  0  0  0  0  0  0
   17.2240   12.8020   26.1630 H   0  0  0  0  0  0  0  0  0  0  0  0
   18.2600   13.5250   24.9140 H   0  0  0  0  0  0  0  0  0  0  0  0
   19.2260   12.1640   27.4920 H   0  0  0  0  0  0  0  0  0  0  0  0
   20.2670   13.0200   26.3630 H   0  0  0  0  0  0  0  0  0  0  0  0
   19.5510   11.4090   24.5200 H   0  0  0  0  0  0  0  0  0  0  0  0
   18.2090    9.9400   26.8510 H   0  0  0  0  0  0  0  0  0  0  0  0
   18.4600    9.2860   25.2260 H   0  0  0  0  0  0  0  0  0  0  0  0
   17.3770   10.6520   25.4570 H   0  0  0  0  0  0  0  0  0  0  0  0
   20.8800   10.2690   26.9370 H   0  0  0  0  0  0  0  0  0  0  0  0
   20.6860    9.4940   25.4680 H   0  0  0  0  0  0  0  0  0  0  0  0
   21.7460   11.9580   24.8600 H   0  0  0  0  0  0  0  0  0  0  0  0
   22.7510   11.1430   26.0770 H   0  0  0  0  0  0  0  0  0  0  0  0
   23.2830    9.3480   24.6680 H   0  0  0  0  0  0  0  0  0  0  0  0
   21.7360    8.4370   23.3030 H   0  0  0  0  0  0  0  0  0  0  0  0
   22.3480   11.4480   22.6290 H   0  0  0  0  0  0  0  0  0  0  0  0
   23.9070    8.8890   22.1750 H   0  0  0  0  0  0  0  0  0  0  0  0
   22.4530    9.4280   21.3510 H   0  0  0  0  0  0  0  0  0  0  0  0
   25.7940    8.9100   20.8160 H   0  0  0  0  0  0  0  0  0  0  0  0
   27.2050    9.9590   19.1050 H   0  0  0  0  0  0  0  0  0  0  0  0
   26.4880   12.0560   18.0070 H   0  0  0  0  0  0  0  0  0  0  0  0
   24.3260   13.0890   18.6190 H   0  0  0  0  0  0  0  0  0  0  0  0
   22.8810   12.0400   20.3060 H   0  0  0  0  0  0  0  0  0  0  0  0
   25.1960   10.9610   23.3490 H   0  0  0  0  0  0  0  0  0  0  0  0
   25.0640   14.9550   24.9640 H   0  0  0  0  0  0  0  0  0  0  0  0
   26.2420   15.9170   26.8990 H   0  0  0  0  0  0  0  0  0  0  0  0
   25.5440   17.1780   25.8510 H   0  0  0  0  0  0  0  0  0  0  0  0
   26.9390   17.5240   26.9100 H   0  0  0  0  0  0  0  0  0  0  0  0
   30.0530   17.6930   23.1350 H   0  0  0  0  0  0  0  0  0  0  0  0
   30.1830   18.0350   24.8690 H   0  0  0  0  0  0  0  0  0  0  0  0
   29.9350   15.6630   25.4430 H   0  0  0  0  0  0  0  0  0  0  0  0
   31.2220   15.8520   24.2650 H   0  0  0  0  0  0  0  0  0  0  0  0
   31.1240   14.4430   22.2890 H   0  0  0  0  0  0  0  0  0  0  0  0
   28.5660   12.3860   20.2870 H   0  0  0  0  0  0  0  0  0  0  0  0
   30.2890   12.6900   20.3880 H   0  0  0  0  0  0  0  0  0  0  0  0
   28.7700   10.6230   22.0640 H   0  0  0  0  0  0  0  0  0  0  0  0
   30.5040   10.9530   22.1830 H   0  0  0  0  0  0  0  0  0  0  0  0
   29.8280   10.2940   20.6840 H   0  0  0  0  0  0  0  0  0  0  0  0
   26.5140   12.1910   22.0200 H   0  0  0  0  0  0  0  0  0  0  0  0
  1  2  1  0  0  0  0
  1 38  1  0  0  0  0
  1 39  1  0  0  0  0
  1 40  1  0  0  0  0
  2  3  1  0  0  0  0
  2 41  1  0  0  0  0
  2 42  1  0  0  0  0
  3  4  1  0  0  0  0
  3  5  1  0  0  0  0
  3 43  1  0  0  0  0
  4 44  1  0  0  0  0
  4 45  1  0  0  0  0
  4 46  1  0  0  0  0
  5  6  1  0  0  0  0
  5 47  1  0  0  0  0
  5 48  1  0  0  0  0
  6  7  1  0  0  0  0
  6 49  1  0  0  0  0
  6 50  1  0  0  0  0
  7  8  1  0  0  0  0
  7  9  1  0  0  0  0
  7 51  1  0  0  0  0
  8 52  1  0  0  0  0
  9 10  1  0  0  0  0
  9 17  1  0  0  0  0
  9 53  1  0  0  0  0
 10 11  1  0  0  0  0
 10 54  1  0  0  0  0
 10 55  1  0  0  0  0
 11 12  1  0  0  0  0
 11 16  2  0  0  0  0
 12 13  2  0  0  0  0
 12 56  1  0  0  0  0
 13 14  1  0  0  0  0
 13 57  1  0  0  0  0
 14 15  2  0  0  0  0
 14 58  1  0  0  0  0
 15 16  1  0  0  0  0
 15 59  1  0  0  0  0
 16 60  1  0  0  0  0
 17 18  1  0  0  0  0
 17 61  1  0  0  0  0
 18 19  2  0  0  0  0
 18 20  1  0  0  0  0
 20 21  1  0  0  0  0
 20 36  2  0  0  0  0
 21 22  2  0  0  0  0
 21 62  1  0  0  0  0
 22 23  1  0  0  0  0
 22 37  1  0  0  0  0
 23 24  1  0  0  0  0
 23 25  1  0  0  0  0
 24 63  1  0  0  0  0
 24 64  1  0  0  0  0
 24 65  1  0  0  0  0
 25 26  2  0  0  0  0
 25 27  2  0  0  0  0
 25 28  1  0  0  0  0
 28 29  1  0  0  0  0
 28 66  1  0  0  0  0
 28 67  1  0  0  0  0
 29 30  1  0  0  0  0
 29 68  1  0  0  0  0
 29 69  1  0  0  0  0
 30 31  1  0  0  0  0
 30 37  1  0  0  0  0
 31 32  2  0  0  0  0
 31 70  1  0  0  0  0
 32 33  1  0  0  0  0
 32 35  1  0  0  0  0
 33 34  1  0  0  0  0
 33 71  1  0  0  0  0
 33 72  1  0  0  0  0
 34 73  1  0  0  0  0
 34 74  1  0  0  0  0
 34 75  1  0  0  0  0
 35 36  1  0  0  0  0
 35 37  2  0  0  0  0
 36 76  1  0  0  0  0
M  CHG  1   5   1
M  END
>  <PARENT_CMPD_ID>
CHEMBL556660

>  <STANDARD_TYPE>
IC50

>  <RELATION>
=

>  <STANDARD_VALUE>
22

>  <STANDARD_UNITS>
nM

>  <COMPOUND_KEY>
10

>  <PUBMED_ID>
19406640

>  <JOURNAL>
Bioorg. Med. Chem. Lett.

>  <YEAR>
2009

>  <VOLUME>
19

>  <FIRST_PAGE>
3674

>  <Company>
GSK

>  <idx>
525

>  <Model>
Valid

>  <target>
7.6575775

>  <des_pred_mlr>
6.7104402

>  <RF_Canvas>
7.6588755

>  <DNN_Canvas>
7.4708872

>  <pred_CoMFA>
6.7707

>  <pred_COMSIA>
6.7413001

>  <pred_abm5>
6.2424154

>  <pred_ff8>
6.55797

>  <pred_gau6>
6.0115566

>  <CID>
BACE_525

>  <active>
1

>  <des_class_bayes>
0

>  <maacs_class_bayes>
1

>  <radial_class_bayes>
1

>  <dend_class_bayes>
1

>  <molprint_class_bayes>
1

>  <RF_canvas>
1

>  <DNN_canvas>
1

$$$$
CHEMBL1270630
  MOE2015           3D

 51 54  0  0  1  0  0  0  0  0999 V2000
   22.5470   11.8410   25.1000 C   0  0  0  0  0  0  0  0  0  0  0  0
   22.3550   11.0800   23.8920 N   0  0  0  0  0  0  0  0  0  0  0  0
   22.4970    9.7510   23.7330 C   0  0  0  0  0  0  0  0  0  0  0  0
   22.2870    9.2940   22.5410 N   0  0  0  0  0  0  0  0  0  0  0  0
   21.9310   10.4720   21.6790 C   0  0  2  0  0  0  0  0  0  0  0  0
   21.9910   11.6240   22.6970 C   0  0  0  0  0  0  0  0  0  0  0  0
   21.7940   12.8100   22.4690 O   0  0  0  0  0  0  0  0  0  0  0  0
   20.5240   10.2270   21.1060 C   0  0  0  0  0  0  0  0  0  0  0  0
   20.2150    8.9850   20.5370 C   0  0  0  0  0  0  0  0  0  0  0  0
   18.9710    8.7320   19.9590 C   0  0  0  0  0  0  0  0  0  0  0  0
   17.9950    9.7200   19.9420 C   0  0  0  0  0  0  0  0  0  0  0  0
   16.7580    9.5870   19.3750 O   0  0  0  0  0  0  0  0  0  0  0  0
   16.2220    8.2790   19.3470 C   0  0  0  0  0  0  0  0  0  0  0  0
   16.6520    7.6540   18.2270 F   0  0  0  0  0  0  0  0  0  0  0  0
   14.8770    8.3970   19.2250 F   0  0  0  0  0  0  0  0  0  0  0  0
   18.2880   10.9720   20.4900 C   0  0  0  0  0  0  0  0  0  0  0  0
   17.2710   12.0720   20.4600 C   0  0  0  0  0  0  0  0  0  0  0  0
   19.5390   11.2120   21.0660 C   0  0  0  0  0  0  0  0  0  0  0  0
   22.9950   10.7260   20.5880 C   0  0  0  0  0  0  0  0  0  0  0  0
   22.6780   11.3160   19.3590 C   0  0  0  0  0  0  0  0  0  0  0  0
   23.6630   11.5870   18.4080 C   0  0  0  0  0  0  0  0  0  0  0  0
   24.9930   11.2980   18.6670 C   0  0  0  0  0  0  0  0  0  0  0  0
   25.3360   10.7350   19.8850 C   0  0  0  0  0  0  0  0  0  0  0  0
   24.3480   10.4480   20.8300 C   0  0  0  0  0  0  0  0  0  0  0  0
   26.7010   10.4640   20.1960 C   0  0  0  0  0  0  0  0  0  0  0  0
   27.8320   10.2390   20.5280 C   0  0  0  0  0  0  0  0  0  0  0  0
   29.1180    9.9490   21.0830 C   0  0  0  0  0  0  0  0  0  0  0  0
   29.1810    9.3260   22.4570 C   0  0  0  0  0  0  0  0  0  0  0  0
   29.5970   10.7470   22.2590 C   0  0  0  0  0  0  0  0  0  0  0  0
   22.8380    8.9400   24.7580 N   0  0  0  0  0  0  0  0  0  0  0  0
   22.3730   12.9070   24.9320 H   0  0  0  0  0  0  0  0  0  0  0  0
   23.5690   11.6860   25.4580 H   0  0  0  0  0  0  0  0  0  0  0  0
   21.8570   11.4700   25.8640 H   0  0  0  0  0  0  0  0  0  0  0  0
   20.9660    8.1960   20.5270 H   0  0  0  0  0  0  0  0  0  0  0  0
   18.8090    7.7600   19.5020 H   0  0  0  0  0  0  0  0  0  0  0  0
   16.4410    7.6810   20.2390 H   0  0  0  0  0  0  0  0  0  0  0  0
   17.6320   12.9750   20.9650 H   0  0  0  0  0  0  0  0  0  0  0  0
   16.3540   11.7590   20.9690 H   0  0  0  0  0  0  0  0  0  0  0  0
   17.0370   12.3440   19.4250 H   0  0  0  0  0  0  0  0  0  0  0  0
   19.7320   12.2060   21.4640 H   0  0  0  0  0  0  0  0  0  0  0  0
   21.6540   11.5880   19.1150 H   0  0  0  0  0  0  0  0  0  0  0  0
   23.3830   12.0410   17.4590 H   0  0  0  0  0  0  0  0  0  0  0  0
   25.7510   11.5250   17.9220 H   0  0  0  0  0  0  0  0  0  0  0  0
   24.6500   10.0080   21.7800 H   0  0  0  0  0  0  0  0  0  0  0  0
   29.8730    9.6310   20.3700 H   0  0  0  0  0  0  0  0  0  0  0  0
   28.2560    9.1380   22.9900 H   0  0  0  0  0  0  0  0  0  0  0  0
   29.9560    8.5910   22.6420 H   0  0  0  0  0  0  0  0  0  0  0  0
   30.6550   10.9800   22.3130 H   0  0  0  0  0  0  0  0  0  0  0  0
   28.9570   11.5240   22.6610 H   0  0  0  0  0  0  0  0  0  0  0  0
   22.9300    7.9480   24.5770 H   0  0  0  0  0  0  0  0  0  0  0  0
   23.0050    9.2690   25.6980 H   0  0  0  0  0  0  0  0  0  0  0  0
  1  2  1  0  0  0  0
  1 31  1  0  0  0  0
  1 32  1  0  0  0  0
  1 33  1  0  0  0  0
  2  3  1  0  0  0  0
  2  6  1  0  0  0  0
  3  4  2  0  0  0  0
  3 30  1  0  0  0  0
  4  5  1  0  0  0  0
  5  6  1  0  0  0  0
  5  8  1  0  0  0  0
  5 19  1  0  0  0  0
  6  7  2  0  0  0  0
  8  9  2  0  0  0  0
  8 18  1  0  0  0  0
  9 10  1  0  0  0  0
  9 34  1  0  0  0  0
 10 11  2  0  0  0  0
 10 35  1  0  0  0  0
 11 12  1  0  0  0  0
 11 16  1  0  0  0  0
 12 13  1  0  0  0  0
 13 14  1  0  0  0  0
 13 15  1  0  0  0  0
 13 36  1  0  0  0  0
 16 17  1  0  0  0  0
 16 18  2  0  0  0  0
 17 37  1  0  0  0  0
 17 38  1  0  0  0  0
 17 39  1  0  0  0  0
 18 40  1  0  0  0  0
 19 20  1  0  0  0  0
 19 24  2  0  0  0  0
 20 21  2  0  0  0  0
 20 41  1  0  0  0  0
 21 22  1  0  0  0  0
 21 42  1  0  0  0  0
 22 23  2  0  0  0  0
 22 43  1  0  0  0  0
 23 24  1  0  0  0  0
 23 25  1  0  0  0  0
 24 44  1  0  0  0  0
 25 26  3  0  0  0  0
 26 27  1  0  0  0  0
 27 28  1  0  0  0  0
 27 29  1  0  0  0  0
 27 45  1  0  0  0  0
 28 29  1  0  0  0  0
 28 46  1  0  0  0  0
 28 47  1  0  0  0  0
 29 48  1  0  0  0  0
 29 49  1  0  0  0  0
 30 50  1  0  0  0  0
 30 51  1  0  0  0  0
M  END
>  <PARENT_CMPD_ID>
CHEMBL1270630

>  <STANDARD_TYPE>
IC50

>  <RELATION>
=

>  <STANDARD_VALUE>
22

>  <STANDARD_UNITS>
nM

>  <COMPOUND_KEY>
92

>  <PUBMED_ID>
20880704

>  <JOURNAL>
Bioorg. Med. Chem. Lett.

>  <YEAR>
2010

>  <VOLUME>
20

>  <FIRST_PAGE>
6597

>  <Company>
Pfizer

>  <idx>
526

>  <Model>
Valid

>  <target>
7.6575775

>  <des_pred_mlr>
6.8237

>  <RF_Canvas>
7.4149103

>  <DNN_Canvas>
7.5686221

>  <pred_CoMFA>
7.9345999

>  <pred_COMSIA>
7.1287999

>  <pred_abm5>
7.63345

>  <pred_ff8>
7.184989

>  <pred_gau6>
7.574635

>  <CID>
BACE_526

>  <active>
1

>  <des_class_bayes>
1

>  <maacs_class_bayes>
1

>  <radial_class_bayes>
1

>  <dend_class_bayes>
1

>  <molprint_class_bayes>
1

>  <RF_canvas>
1

>  <DNN_canvas>
1

$$$$
23537249_47
  MOE2015           3D

 45 48  0  0  1  0  0  0  0  0999 V2000
   25.3100   10.9690   20.0670 C   0  0  0  0  0  0  0  0  0  0  0  0
   24.9060   11.1450   18.7500 C   0  0  0  0  0  0  0  0  0  0  0  0
   23.5610   11.2550   18.4340 C   0  0  0  0  0  0  0  0  0  0  0  0
   22.5800   11.1890   19.4230 C   0  0  0  0  0  0  0  0  0  0  0  0
   22.9490   11.0160   20.7540 C   0  0  0  0  0  0  0  0  0  0  0  0
   24.3190   10.8950   21.0470 C   0  0  0  0  0  0  0  0  0  0  0  0
   20.9140   11.3460   18.8550 S   0  0  0  0  0  0  0  0  0  0  0  0
   20.0140   10.5710   20.2210 C   0  0  0  0  0  0  0  0  0  0  0  0
   20.4830   11.1930   21.5330 C   0  0  0  0  0  0  0  0  0  0  0  0
   21.9580   10.9640   21.9050 C   0  0  3  0  0  0  0  0  0  0  0  0
   26.7220   10.9040   20.4260 C   0  0  0  0  0  0  0  0  0  0  0  0
   22.3180   12.0010   22.9660 C   0  0  0  0  0  0  0  0  0  0  0  0
   22.5900   11.3090   24.1060 N   0  0  0  0  0  0  0  0  0  0  0  0
   22.4250    9.9930   23.8640 C   0  0  0  0  0  0  0  0  0  0  0  0
   22.0620    9.6790   22.6600 N   0  0  0  0  0  0  0  0  0  0  0  0
   22.3650   13.2100   22.8050 O   0  0  0  0  0  0  0  0  0  0  0  0
   22.9910   11.9280   25.3440 C   0  0  0  0  0  0  0  0  0  0  0  0
   22.6320    9.0730   24.8310 N   0  0  0  0  0  0  0  0  0  0  0  0
   27.6460   11.8030   19.8890 C   0  0  0  0  0  0  0  0  0  0  0  0
   28.9810   11.7410   20.2650 C   0  0  0  0  0  0  0  0  0  0  0  0
   30.1250   12.8420   19.6130 Cl  0  0  0  0  0  0  0  0  0  0  0  0
   29.3650   10.7840   21.1820 C   0  0  0  0  0  0  0  0  0  0  0  0
   28.5130    9.9010   21.7340 N   0  0  0  0  0  0  0  0  0  0  0  0
   27.2240    9.9760   21.3360 C   0  0  0  0  0  0  0  0  0  0  0  0
   18.5390   10.9140   20.0010 C   0  0  0  0  0  0  0  0  0  0  0  0
   20.1800    9.0570   20.1620 C   0  0  0  0  0  0  0  0  0  0  0  0
   25.6330   11.1950   17.9430 H   0  0  0  0  0  0  0  0  0  0  0  0
   23.2840   11.3930   17.3900 H   0  0  0  0  0  0  0  0  0  0  0  0
   24.6240   10.7650   22.0850 H   0  0  0  0  0  0  0  0  0  0  0  0
   19.8460   10.8260   22.3520 H   0  0  0  0  0  0  0  0  0  0  0  0
   20.2820   12.2750   21.4960 H   0  0  0  0  0  0  0  0  0  0  0  0
   23.0420   13.0150   25.2470 H   0  0  0  0  0  0  0  0  0  0  0  0
   23.9700   11.5360   25.6330 H   0  0  0  0  0  0  0  0  0  0  0  0
   22.2700   11.6600   26.1220 H   0  0  0  0  0  0  0  0  0  0  0  0
   22.4960    8.0960   24.6030 H   0  0  0  0  0  0  0  0  0  0  0  0
   22.9090    9.3050   25.7740 H   0  0  0  0  0  0  0  0  0  0  0  0
   27.3280   12.5700   19.1860 H   0  0  0  0  0  0  0  0  0  0  0  0
   30.3950   10.6970   21.5130 H   0  0  0  0  0  0  0  0  0  0  0  0
   26.5780    9.2300   21.7930 H   0  0  0  0  0  0  0  0  0  0  0  0
   18.3570   11.9950   20.0130 H   0  0  0  0  0  0  0  0  0  0  0  0
   17.9200   10.4790   20.7950 H   0  0  0  0  0  0  0  0  0  0  0  0
   18.1600   10.5190   19.0500 H   0  0  0  0  0  0  0  0  0  0  0  0
   21.2230    8.7310   20.2200 H   0  0  0  0  0  0  0  0  0  0  0  0
   19.7630    8.6400   19.2360 H   0  0  0  0  0  0  0  0  0  0  0  0
   19.6470    8.5790   20.9930 H   0  0  0  0  0  0  0  0  0  0  0  0
  1  2  1  0  0  0  0
  1  6  2  0  0  0  0
  1 11  1  0  0  0  0
  2  3  2  0  0  0  0
  2 27  1  0  0  0  0
  3  4  1  0  0  0  0
  3 28  1  0  0  0  0
  4  5  2  0  0  0  0
  4  7  1  0  0  0  0
  5  6  1  0  0  0  0
  5 10  1  0  0  0  0
  6 29  1  0  0  0  0
  7  8  1  0  0  0  0
  8  9  1  0  0  0  0
  8 25  1  0  0  0  0
  8 26  1  0  0  0  0
  9 10  1  0  0  0  0
  9 30  1  0  0  0  0
  9 31  1  0  0  0  0
 10 12  1  0  0  0  0
 10 15  1  0  0  0  0
 11 19  1  0  0  0  0
 11 24  2  0  0  0  0
 12 13  1  0  0  0  0
 12 16  2  0  0  0  0
 13 14  1  0  0  0  0
 13 17  1  0  0  0  0
 14 15  2  0  0  0  0
 14 18  1  0  0  0  0
 17 32  1  0  0  0  0
 17 33  1  0  0  0  0
 17 34  1  0  0  0  0
 18 35  1  0  0  0  0
 18 36  1  0  0  0  0
 19 20  2  0  0  0  0
 19 37  1  0  0  0  0
 20 21  1  0  0  0  0
 20 22  1  0  0  0  0
 22 23  2  0  0  0  0
 22 38  1  0  0  0  0
 23 24  1  0  0  0  0
 24 39  1  0  0  0  0
 25 40  1  0  0  0  0
 25 41  1  0  0  0  0
 25 42  1  0  0  0  0
 26 43  1  0  0  0  0
 26 44  1  0  0  0  0
 26 45  1  0  0  0  0
M  END
>  <PARENT_CMPD_ID>
23537249_47

>  <STANDARD_TYPE>
IC50

>  <RELATION>
=

>  <STANDARD_VALUE>
0.022

>  <STANDARD_UNITS>
uM

>  <COMPOUND_KEY>
47

>  <PUBMED_ID>
23537249

>  <JOURNAL>
J.Med.Chem.

>  <YEAR>
2013

>  <VOLUME>
56

>  <FIRST_PAGE>
3379

>  <Company>
Array

>  <idx>
527

>  <Model>
Valid

>  <target>
7.6575775

>  <des_pred_mlr>
6.3036199

>  <RF_Canvas>
7.2603836

>  <DNN_Canvas>
7.847744

>  <pred_CoMFA>
6.8379002

>  <pred_COMSIA>
6.5497999

>  <pred_abm5>
6.7169671

>  <pred_ff8>
5.7697973

>  <pred_gau6>
6.8673882

>  <CID>
BACE_527

>  <active>
1

>  <des_class_bayes>
0

>  <maacs_class_bayes>
0

>  <radial_class_bayes>
0

>  <dend_class_bayes>
0

>  <molprint_class_bayes>
0

>  <RF_canvas>
1

>  <DNN_canvas>
1

$$$$
22325942_13
  MOE2015           3D

 54 58  0  0  1  0  0  0  0  0999 V2000
   28.9360    9.5860   21.9300 C   0  0  0  0  0  0  0  0  0  0  0  0
   29.3960    8.3460   23.0280 Cl  0  0  0  0  0  0  0  0  0  0  0  0
   29.8440   10.5880   21.6320 C   0  0  0  0  0  0  0  0  0  0  0  0
   30.8400   10.5780   22.0680 H   0  0  0  0  0  0  0  0  0  0  0  0
   29.4650   11.6030   20.7770 C   0  0  0  0  0  0  0  0  0  0  0  0
   30.5710   12.8580   20.4040 Cl  0  0  0  0  0  0  0  0  0  0  0  0
   28.1910   11.6300   20.2330 C   0  0  0  0  0  0  0  0  0  0  0  0
   27.9070   12.4640   19.5940 H   0  0  0  0  0  0  0  0  0  0  0  0
   27.2660   10.6270   20.5320 C   0  0  0  0  0  0  0  0  0  0  0  0
   27.6610    9.5860   21.3770 C   0  0  0  0  0  0  0  0  0  0  0  0
   26.9670    8.7860   21.6280 H   0  0  0  0  0  0  0  0  0  0  0  0
   25.8980   10.7260   20.0410 C   0  0  0  0  0  0  0  0  0  0  0  0
   25.6080   11.0350   18.7150 C   0  0  0  0  0  0  0  0  0  0  0  0
   26.4060   11.1540   17.9850 H   0  0  0  0  0  0  0  0  0  0  0  0
   24.2980   11.2020   18.2990 C   0  0  0  0  0  0  0  0  0  0  0  0
   24.0840   11.4510   17.2620 H   0  0  0  0  0  0  0  0  0  0  0  0
   23.2580   11.0580   19.2040 C   0  0  0  0  0  0  0  0  0  0  0  0
   22.2470   11.2080   18.8340 H   0  0  0  0  0  0  0  0  0  0  0  0
   23.5050   10.7310   20.5390 C   0  0  0  0  0  0  0  0  0  0  0  0
   24.8350   10.5730   20.9310 C   0  0  0  0  0  0  0  0  0  0  0  0
   25.0480   10.3520   21.9760 H   0  0  0  0  0  0  0  0  0  0  0  0
   22.4060   10.5830   21.5910 C   0  0  3  0  0  0  0  0  0  0  0  0
   22.4680   11.7320   22.6300 C   0  0  0  0  0  0  0  0  0  0  0  0
   22.4140   12.9860   22.3440 N   0  0  0  0  0  0  0  0  0  0  0  0
   22.5030   13.8740   23.5120 C   0  0  0  0  0  0  0  0  0  0  0  0
   21.9660   14.8010   23.2810 H   0  0  0  0  0  0  0  0  0  0  0  0
   23.5530   14.1430   23.6790 H   0  0  0  0  0  0  0  0  0  0  0  0
   21.8990   13.2510   24.7660 C   0  0  0  0  0  0  0  0  0  0  0  0
   22.0110   13.9260   25.6210 H   0  0  0  0  0  0  0  0  0  0  0  0
   20.8230   13.0950   24.6110 H   0  0  0  0  0  0  0  0  0  0  0  0
   22.5730   11.9190   25.0520 C   0  0  0  0  0  0  0  0  0  0  0  0
   22.0330   11.4090   25.8580 H   0  0  0  0  0  0  0  0  0  0  0  0
   23.6030   12.0800   25.3910 H   0  0  0  0  0  0  0  0  0  0  0  0
   22.5790   11.1320   23.8510 N   0  0  0  0  0  0  0  0  0  0  0  0
   22.7010    9.7880   23.7030 C   0  0  0  0  0  0  0  0  0  0  0  0
   22.6550    9.3510   22.4700 N   0  0  0  0  0  0  0  0  0  0  0  0
   22.8700    8.9730   24.7570 N   0  0  0  0  0  0  0  0  0  0  0  0
   22.9680    7.9790   24.5870 H   0  0  0  0  0  0  0  0  0  0  0  0
   22.8980    9.2930   25.7130 H   0  0  0  0  0  0  0  0  0  0  0  0
   21.0160   10.4410   20.9850 C   0  0  0  0  0  0  0  0  0  0  0  0
   20.5690    9.1730   20.6070 C   0  0  0  0  0  0  0  0  0  0  0  0
   21.1920    8.2950   20.7660 H   0  0  0  0  0  0  0  0  0  0  0  0
   19.3280    9.0130   20.0230 C   0  0  0  0  0  0  0  0  0  0  0  0
   18.9860    8.0220   19.7390 H   0  0  0  0  0  0  0  0  0  0  0  0
   18.5200   10.1200   19.7910 C   0  0  0  0  0  0  0  0  0  0  0  0
   17.3280    9.8280   19.2110 O   0  0  0  0  0  0  0  0  0  0  0  0
   16.4610   10.9170   18.9230 C   0  0  0  0  0  0  0  0  0  0  0  0
   16.9190   11.6100   18.2100 H   0  0  0  0  0  0  0  0  0  0  0  0
   16.1570   11.4330   19.8400 H   0  0  0  0  0  0  0  0  0  0  0  0
   15.5580   10.5100   18.4570 H   0  0  0  0  0  0  0  0  0  0  0  0
   18.9590   11.3880   20.1420 C   0  0  0  0  0  0  0  0  0  0  0  0
   18.3600   12.2750   19.9670 H   0  0  0  0  0  0  0  0  0  0  0  0
   20.2010   11.5450   20.7300 C   0  0  0  0  0  0  0  0  0  0  0  0
   20.5190   12.5570   20.9640 H   0  0  0  0  0  0  0  0  0  0  0  0
  1  2  1  0  0  0  0
  1  3  1  0  0  0  0
  1 10  2  0  0  0  0
  3  4  1  0  0  0  0
  3  5  2  0  0  0  0
  5  6  1  0  0  0  0
  5  7  1  0  0  0  0
  7  8  1  0  0  0  0
  7  9  2  0  0  0  0
  9 10  1  0  0  0  0
  9 12  1  0  0  0  0
 10 11  1  0  0  0  0
 12 13  1  0  0  0  0
 12 20  2  0  0  0  0
 13 14  1  0  0  0  0
 13 15  2  0  0  0  0
 15 16  1  0  0  0  0
 15 17  1  0  0  0  0
 17 18  1  0  0  0  0
 17 19  2  0  0  0  0
 19 20  1  0  0  0  0
 19 22  1  0  0  0  0
 20 21  1  0  0  0  0
 22 23  1  0  0  0  0
 22 36  1  0  0  0  0
 22 40  1  0  0  0  0
 23 24  2  0  0  0  0
 23 34  1  0  0  0  0
 24 25  1  0  0  0  0
 25 26  1  0  0  0  0
 25 27  1  0  0  0  0
 25 28  1  0  0  0  0
 28 29  1  0  0  0  0
 28 30  1  0  0  0  0
 28 31  1  0  0  0  0
 31 32  1  0  0  0  0
 31 33  1  0  0  0  0
 31 34  1  0  0  0  0
 34 35  1  0  0  0  0
 35 36  2  0  0  0  0
 35 37  1  0  0  0  0
 37 38  1  0  0  0  0
 37 39  1  0  0  0  0
 40 41  1  0  0  0  0
 40 53  2  0  0  0  0
 41 42  1  0  0  0  0
 41 43  2  0  0  0  0
 43 44  1  0  0  0  0
 43 45  1  0  0  0  0
 45 46  1  0  0  0  0
 45 51  2  0  0  0  0
 46 47  1  0  0  0  0
 47 48  1  0  0  0  0
 47 49  1  0  0  0  0
 47 50  1  0  0  0  0
 51 52  1  0  0  0  0
 51 53  1  0  0  0  0
 53 54  1  0  0  0  0
M  END
>  <PARENT_CMPD_ID>
22325942_13

>  <STANDARD_TYPE>
IC50

>  <RELATION>
=

>  <COMPOUND_KEY>
13

>  <PUBMED_ID>
22325942

>  <JOURNAL>
Bioorg. Med. Chem. Lett.

>  <YEAR>
2012

>  <VOLUME>
22

>  <FIRST_PAGE>
1854

>  <Company>
AstraZeneca

>  <idx>
528

>  <Model>
Valid

>  <target>
7.6500001

>  <des_pred_mlr>
6.8724499

>  <RF_Canvas>
7.0839968

>  <DNN_Canvas>
7.6834779

>  <pred_CoMFA>
7.5499001

>  <pred_COMSIA>
7.1531

>  <pred_abm5>
7.5681906

>  <pred_ff8>
6.1338143

>  <pred_gau6>
7.7387671

>  <CID>
BACE_528

>  <active>
1

>  <des_class_bayes>
0

>  <maacs_class_bayes>
0

>  <radial_class_bayes>
0

>  <dend_class_bayes>
0

>  <molprint_class_bayes>
0

>  <RF_canvas>
1

>  <DNN_canvas>
1

$$$$
22468639_18
  MOE2015           3D

 80 84  0  0  1  0  0  0  0  0999 V2000
   21.0930   13.8350   29.1970 C   0  0  0  0  0  0  0  0  0  0  0  0
   22.1870   13.8420   29.1920 H   0  0  0  0  0  0  0  0  0  0  0  0
   20.7440   14.8740   29.1640 H   0  0  0  0  0  0  0  0  0  0  0  0
   20.4570   13.0150   30.3150 C   0  0  0  0  0  0  0  0  0  0  0  0
   20.0490   13.5900   31.1500 H   0  0  0  0  0  0  0  0  0  0  0  0
   21.1130   12.2320   30.7130 H   0  0  0  0  0  0  0  0  0  0  0  0
   19.4370   12.5010   29.3030 C   0  0  0  0  0  0  0  0  0  0  0  0
   18.4950   13.0630   29.3080 H   0  0  0  0  0  0  0  0  0  0  0  0
   19.2010   11.4360   29.3870 H   0  0  0  0  0  0  0  0  0  0  0  0
   20.4030   12.9100   28.1660 C   0  0  0  0  0  0  0  0  0  0  0  0
   21.3220   11.8370   27.6090 C   0  0  0  0  0  0  0  0  0  0  0  0
   21.8210   11.2720   28.4060 H   0  0  0  0  0  0  0  0  0  0  0  0
   22.1160   12.3330   27.0380 H   0  0  0  0  0  0  0  0  0  0  0  0
   19.8040   13.6350   27.0810 O   0  0  0  0  0  0  0  0  0  0  0  0
   19.1490   12.8960   26.1340 C   0  0  0  0  0  0  0  0  0  0  0  0
   18.2380   13.5880   25.4340 N   0  0  0  0  0  0  0  0  0  0  0  0
   17.5740   12.9220   24.4770 C   0  0  0  0  0  0  0  0  0  0  0  0
   16.8560   13.5240   23.9260 H   0  0  0  0  0  0  0  0  0  0  0  0
   17.7500   11.5750   24.1990 C   0  0  0  0  0  0  0  0  0  0  0  0
   16.9410   10.9040   23.1290 C   0  0  0  0  0  0  0  0  0  0  0  0
   17.5450   10.0970   22.6900 H   0  0  0  0  0  0  0  0  0  0  0  0
   16.8090   11.6240   22.3090 H   0  0  0  0  0  0  0  0  0  0  0  0
   15.5650   10.3510   23.5520 C   0  0  0  0  0  0  0  0  0  0  0  0
   14.8570    9.8400   22.2930 C   0  0  0  0  0  0  0  0  0  0  0  0
   14.7000   10.6460   21.5680 H   0  0  0  0  0  0  0  0  0  0  0  0
   13.8740    9.4150   22.5290 H   0  0  0  0  0  0  0  0  0  0  0  0
   15.4420    9.0570   21.7980 H   0  0  0  0  0  0  0  0  0  0  0  0
   14.6810   11.4220   24.1890 C   0  0  0  0  0  0  0  0  0  0  0  0
   14.5860   12.3000   23.5400 H   0  0  0  0  0  0  0  0  0  0  0  0
   15.0680   11.7550   25.1580 H   0  0  0  0  0  0  0  0  0  0  0  0
   13.6680   11.0420   24.3710 H   0  0  0  0  0  0  0  0  0  0  0  0
   15.7170    9.1830   24.5270 C   0  0  0  0  0  0  0  0  0  0  0  0
   16.3630    8.4000   24.1140 H   0  0  0  0  0  0  0  0  0  0  0  0
   14.7470    8.7240   24.7510 H   0  0  0  0  0  0  0  0  0  0  0  0
   16.1480    9.5030   25.4820 H   0  0  0  0  0  0  0  0  0  0  0  0
   18.7020   10.8910   24.9470 C   0  0  0  0  0  0  0  0  0  0  0  0
   18.8540    9.8300   24.7580 H   0  0  0  0  0  0  0  0  0  0  0  0
   19.4510   11.5600   25.9170 C   0  0  0  0  0  0  0  0  0  0  0  0
   20.5200   10.8790   26.7200 C   0  0  3  0  0  0  0  0  0  0  0  0
   20.0190   10.1480   27.3680 H   0  0  0  0  0  0  0  0  0  0  0  0
   21.4950   10.0610   25.9020 N   0  3  0  0  0  0  0  0  0  0  0  0
   20.9840    9.2990   25.4240 H   0  0  0  0  0  0  0  0  0  0  0  0
   22.1600    9.5830   26.5250 H   0  0  0  0  0  0  0  0  0  0  0  0
   22.2430   10.7880   24.8120 C   0  0  0  0  0  0  0  0  0  0  0  0
   23.0660   11.3240   25.2910 H   0  0  0  0  0  0  0  0  0  0  0  0
   21.5520   11.4950   24.3440 H   0  0  0  0  0  0  0  0  0  0  0  0
   22.7360    9.7650   23.7870 C   0  0  3  0  0  0  0  0  0  0  0  0
   23.4050    9.0460   24.2750 H   0  0  0  0  0  0  0  0  0  0  0  0
   21.5900    9.0370   23.3220 O   0  0  0  0  0  0  0  0  0  0  0  0
   21.1280    9.5560   22.6360 H   0  0  0  0  0  0  0  0  0  0  0  0
   23.4630   10.4560   22.6150 C   0  0  3  0  0  0  0  0  0  0  0  0
   22.7390   11.1470   22.1650 H   0  0  0  0  0  0  0  0  0  0  0  0
   24.6210   11.2300   23.0550 N   0  0  0  0  0  0  0  0  0  0  0  0
   25.4760   10.7430   23.3050 H   0  0  0  0  0  0  0  0  0  0  0  0
   24.6050   12.6060   23.0890 C   0  0  0  0  0  0  0  0  0  0  0  0
   23.5910   13.2670   22.8950 O   0  0  0  0  0  0  0  0  0  0  0  0
   25.9550   13.2270   23.3130 C   0  0  0  0  0  0  0  0  0  0  0  0
   26.5410   12.6350   24.0220 H   0  0  0  0  0  0  0  0  0  0  0  0
   25.8310   14.2330   23.7210 H   0  0  0  0  0  0  0  0  0  0  0  0
   26.4890   13.2820   22.3600 H   0  0  0  0  0  0  0  0  0  0  0  0
   23.8970    9.4650   21.5150 C   0  0  0  0  0  0  0  0  0  0  0  0
   23.0490    8.8510   21.1860 H   0  0  0  0  0  0  0  0  0  0  0  0
   24.6460    8.7690   21.9150 H   0  0  0  0  0  0  0  0  0  0  0  0
   24.4490   10.1850   20.3120 C   0  0  0  0  0  0  0  0  0  0  0  0
   25.7960   10.0760   19.9620 C   0  0  0  0  0  0  0  0  0  0  0  0
   26.4710    9.4410   20.5290 H   0  0  0  0  0  0  0  0  0  0  0  0
   26.2990   10.8090   18.8900 C   0  0  0  0  0  0  0  0  0  0  0  0
   27.6310   10.6950   18.5980 O   0  0  0  0  0  0  0  0  0  0  0  0
   28.0890   11.8670   17.9310 C   0  0  0  0  0  0  0  0  0  0  0  0
   29.1350   11.7050   17.6500 H   0  0  0  0  0  0  0  0  0  0  0  0
   28.0520   12.7220   18.6190 H   0  0  0  0  0  0  0  0  0  0  0  0
   25.8840   12.3270   17.0480 O   0  0  0  0  0  0  0  0  0  0  0  0
   27.2430   12.0800   16.7030 C   0  0  0  0  0  0  0  0  0  0  0  0
   27.6060   12.9420   16.1360 H   0  0  0  0  0  0  0  0  0  0  0  0
   27.2720   11.2040   16.0430 H   0  0  0  0  0  0  0  0  0  0  0  0
   25.4600   11.6230   18.1390 C   0  0  0  0  0  0  0  0  0  0  0  0
   24.1200   11.7330   18.4780 C   0  0  0  0  0  0  0  0  0  0  0  0
   23.4640   12.3720   17.8930 H   0  0  0  0  0  0  0  0  0  0  0  0
   23.6180   11.0150   19.5540 C   0  0  0  0  0  0  0  0  0  0  0  0
   22.5630   11.1140   19.7960 H   0  0  0  0  0  0  0  0  0  0  0  0
  1  2  1  0  0  0  0
  1  3  1  0  0  0  0
  1  4  1  0  0  0  0
  1 10  1  0  0  0  0
  4  5  1  0  0  0  0
  4  6  1  0  0  0  0
  4  7  1  0  0  0  0
  7  8  1  0  0  0  0
  7  9  1  0  0  0  0
  7 10  1  0  0  0  0
 10 11  1  0  0  0  0
 10 14  1  0  0  0  0
 11 12  1  0  0  0  0
 11 13  1  0  0  0  0
 11 39  1  0  0  0  0
 14 15  1  0  0  0  0
 15 16  1  0  0  0  0
 15 38  2  0  0  0  0
 16 17  2  0  0  0  0
 17 18  1  0  0  0  0
 17 19  1  0  0  0  0
 19 20  1  0  0  0  0
 19 36  2  0  0  0  0
 20 21  1  0  0  0  0
 20 22  1  0  0  0  0
 20 23  1  0  0  0  0
 23 24  1  0  0  0  0
 23 28  1  0  0  0  0
 23 32  1  0  0  0  0
 24 25  1  0  0  0  0
 24 26  1  0  0  0  0
 24 27  1  0  0  0  0
 28 29  1  0  0  0  0
 28 30  1  0  0  0  0
 28 31  1  0  0  0  0
 32 33  1  0  0  0  0
 32 34  1  0  0  0  0
 32 35  1  0  0  0  0
 36 37  1  0  0  0  0
 36 38  1  0  0  0  0
 38 39  1  0  0  0  0
 39 40  1  0  0  0  0
 39 41  1  0  0  0  0
 41 42  1  0  0  0  0
 41 43  1  0  0  0  0
 41 44  1  0  0  0  0
 44 45  1  0  0  0  0
 44 46  1  0  0  0  0
 44 47  1  0  0  0  0
 47 48  1  0  0  0  0
 47 49  1  0  0  0  0
 47 51  1  0  0  0  0
 49 50  1  0  0  0  0
 51 52  1  0  0  0  0
 51 53  1  0  0  0  0
 51 61  1  0  0  0  0
 53 54  1  0  0  0  0
 53 55  1  0  0  0  0
 55 56  2  0  0  0  0
 55 57  1  0  0  0  0
 57 58  1  0  0  0  0
 57 59  1  0  0  0  0
 57 60  1  0  0  0  0
 61 62  1  0  0  0  0
 61 63  1  0  0  0  0
 61 64  1  0  0  0  0
 64 65  1  0  0  0  0
 64 79  2  0  0  0  0
 65 66  1  0  0  0  0
 65 67  2  0  0  0  0
 67 68  1  0  0  0  0
 67 76  1  0  0  0  0
 68 69  1  0  0  0  0
 69 70  1  0  0  0  0
 69 71  1  0  0  0  0
 69 73  1  0  0  0  0
 72 73  1  0  0  0  0
 72 76  1  0  0  0  0
 73 74  1  0  0  0  0
 73 75  1  0  0  0  0
 76 77  2  0  0  0  0
 77 78  1  0  0  0  0
 77 79  1  0  0  0  0
 79 80  1  0  0  0  0
M  CHG  1  41   1
M  END
>  <PARENT_CMPD_ID>
22468639_18

>  <STANDARD_TYPE>
IC50

>  <RELATION>
=

>  <STANDARD_VALUE>
22.799999

>  <STANDARD_UNITS>
nM

>  <COMPOUND_KEY>
18

>  <PUBMED_ID>
22468639

>  <JOURNAL>
J. Med. Chem.

>  <YEAR>
2012

>  <VOLUME>
55

>  <FIRST_PAGE>
9009

>  <Company>
Amgen

>  <idx>
529

>  <Model>
Valid

>  <target>
7.642065

>  <des_pred_mlr>
7.5419102

>  <RF_Canvas>
7.727541

>  <DNN_Canvas>
7.8414764

>  <pred_CoMFA>
7.3512998

>  <pred_COMSIA>
7.3395

>  <pred_abm5>
7.5991964

>  <pred_ff8>
6.860189

>  <pred_gau6>
7.592597

>  <CID>
BACE_529

>  <active>
1

>  <des_class_bayes>
0

>  <maacs_class_bayes>
1

>  <radial_class_bayes>
1

>  <dend_class_bayes>
1

>  <molprint_class_bayes>
1

>  <RF_canvas>
1

>  <DNN_canvas>
1

$$$$
CHEMBL549458
  MOE2015           3D

 70 73  0  0  1  0  0  0  0  0999 V2000
   19.0700   11.5180   26.1700 C   0  0  0  0  0  0  0  0  0  0  0  0
   20.2720   11.0770   26.9870 C   0  0  0  0  0  0  0  0  0  0  0  0
   21.2170   10.2580   26.1760 N   0  3  0  0  0  0  0  0  0  0  0  0
   22.0690   11.0180   25.1940 C   0  0  0  0  0  0  0  0  0  0  0  0
   22.5500   10.0200   24.1360 C   0  0  1  0  0  0  0  0  0  0  0  0
   21.4210    9.2010   23.8000 O   0  0  0  0  0  0  0  0  0  0  0  0
   23.1330   10.7280   22.8950 C   0  0  3  0  0  0  0  0  0  0  0  0
   23.4350    9.7500   21.7370 C   0  0  0  0  0  0  0  0  0  0  0  0
   24.2720   10.3700   20.6430 C   0  0  0  0  0  0  0  0  0  0  0  0
   23.8760   11.5500   20.0120 C   0  0  0  0  0  0  0  0  0  0  0  0
   24.6960   12.1570   19.0690 C   0  0  0  0  0  0  0  0  0  0  0  0
   25.9090   11.5790   18.7280 C   0  0  0  0  0  0  0  0  0  0  0  0
   26.3010   10.3930   19.3270 C   0  0  0  0  0  0  0  0  0  0  0  0
   25.4880    9.7910   20.2800 C   0  0  0  0  0  0  0  0  0  0  0  0
   24.3370   11.4810   23.2200 N   0  0  0  0  0  0  0  0  0  0  0  0
   24.3190   12.8370   23.4510 C   0  0  0  0  0  0  0  0  0  0  0  0
   23.2840   13.4780   23.5740 O   0  0  0  0  0  0  0  0  0  0  0  0
   25.6510   13.4830   23.4990 C   0  0  0  0  0  0  0  0  0  0  0  0
   25.9010   14.4200   24.4840 C   0  0  0  0  0  0  0  0  0  0  0  0
   27.1770   14.9760   24.6350 C   0  0  0  0  0  0  0  0  0  0  0  0
   27.5040   15.3840   25.9700 N   0  0  0  0  0  0  0  0  0  0  0  0
   27.7650   14.2350   26.8880 C   0  0  0  0  0  0  0  0  0  0  0  0
   28.4690   16.7380   26.2390 S   0  0  0  0  0  0  0  0  0  0  0  0
   28.5830   16.8390   27.6800 O   0  0  0  0  0  0  0  0  0  0  0  0
   27.9160   17.8320   25.4730 O   0  0  0  0  0  0  0  0  0  0  0  0
   30.0840   16.2780   25.6360 C   0  0  0  0  0  0  0  0  0  0  0  0
   30.1960   16.2550   24.1370 C   0  0  0  0  0  0  0  0  0  0  0  0
   29.5070   15.1180   23.4790 C   0  0  0  0  0  0  0  0  0  0  0  0
   30.0350   14.3460   22.4730 C   0  0  0  0  0  0  0  0  0  0  0  0
   29.0720   13.4930   22.0350 N   0  0  0  0  0  0  0  0  0  0  0  0
   29.2760   12.5200   20.9820 C   0  0  0  0  0  0  0  0  0  0  0  0
   29.5860   11.1410   21.5180 C   0  0  0  0  0  0  0  0  0  0  0  0
   27.9070   13.7050   22.7260 C   0  0  0  0  0  0  0  0  0  0  0  0
   26.6540   13.0990   22.6100 C   0  0  0  0  0  0  0  0  0  0  0  0
   28.1760   14.6730   23.6900 C   0  0  0  0  0  0  0  0  0  0  0  0
   18.3520   12.0360   26.8140 H   0  0  0  0  0  0  0  0  0  0  0  0
   18.5620   10.6580   25.7210 H   0  0  0  0  0  0  0  0  0  0  0  0
   19.3510   12.2070   25.3690 H   0  0  0  0  0  0  0  0  0  0  0  0
   19.9490   10.4360   27.8140 H   0  0  0  0  0  0  0  0  0  0  0  0
   20.8290   11.9260   27.3960 H   0  0  0  0  0  0  0  0  0  0  0  0
   20.7140    9.5510   25.6060 H   0  0  0  0  0  0  0  0  0  0  0  0
   21.8270    9.7080   26.7950 H   0  0  0  0  0  0  0  0  0  0  0  0
   21.4300   11.7800   24.7400 H   0  0  0  0  0  0  0  0  0  0  0  0
   22.8840   11.4890   25.7510 H   0  0  0  0  0  0  0  0  0  0  0  0
   23.3010    9.3570   24.5810 H   0  0  0  0  0  0  0  0  0  0  0  0
   20.9380    9.6010   23.0510 H   0  0  0  0  0  0  0  0  0  0  0  0
   22.3780   11.4340   22.5260 H   0  0  0  0  0  0  0  0  0  0  0  0
   23.9610    8.8750   22.1410 H   0  0  0  0  0  0  0  0  0  0  0  0
   22.5020    9.3750   21.2980 H   0  0  0  0  0  0  0  0  0  0  0  0
   22.9280   12.0210   20.2580 H   0  0  0  0  0  0  0  0  0  0  0  0
   24.3820   13.0810   18.5920 H   0  0  0  0  0  0  0  0  0  0  0  0
   26.5450   12.0510   17.9830 H   0  0  0  0  0  0  0  0  0  0  0  0
   27.2460    9.9320   19.0520 H   0  0  0  0  0  0  0  0  0  0  0  0
   25.8220    8.8660   20.7430 H   0  0  0  0  0  0  0  0  0  0  0  0
   25.2230   10.9850   23.2480 H   0  0  0  0  0  0  0  0  0  0  0  0
   25.1360   14.6430   25.2260 H   0  0  0  0  0  0  0  0  0  0  0  0
   28.7310   13.7700   26.6720 H   0  0  0  0  0  0  0  0  0  0  0  0
   26.9870   13.4700   26.7890 H   0  0  0  0  0  0  0  0  0  0  0  0
   27.7380   14.5540   27.9340 H   0  0  0  0  0  0  0  0  0  0  0  0
   30.7620   17.0430   26.0330 H   0  0  0  0  0  0  0  0  0  0  0  0
   30.3690   15.3270   26.0970 H   0  0  0  0  0  0  0  0  0  0  0  0
   29.8180   17.1910   23.7080 H   0  0  0  0  0  0  0  0  0  0  0  0
   31.2630   16.2160   23.8800 H   0  0  0  0  0  0  0  0  0  0  0  0
   31.0180   14.3650   22.0180 H   0  0  0  0  0  0  0  0  0  0  0  0
   28.3800   12.5080   20.3540 H   0  0  0  0  0  0  0  0  0  0  0  0
   30.1010   12.8730   20.3520 H   0  0  0  0  0  0  0  0  0  0  0  0
   28.7640   10.7560   22.1310 H   0  0  0  0  0  0  0  0  0  0  0  0
   30.4870   11.1510   22.1400 H   0  0  0  0  0  0  0  0  0  0  0  0
   29.7480   10.4400   20.6930 H   0  0  0  0  0  0  0  0  0  0  0  0
   26.4670   12.3630   21.8350 H   0  0  0  0  0  0  0  0  0  0  0  0
  1  2  1  0  0  0  0
  1 36  1  0  0  0  0
  1 37  1  0  0  0  0
  1 38  1  0  0  0  0
  2  3  1  0  0  0  0
  2 39  1  0  0  0  0
  2 40  1  0  0  0  0
  3  4  1  0  0  0  0
  3 41  1  0  0  0  0
  3 42  1  0  0  0  0
  4  5  1  0  0  0  0
  4 43  1  0  0  0  0
  4 44  1  0  0  0  0
  5  6  1  0  0  0  0
  5  7  1  0  0  0  0
  5 45  1  0  0  0  0
  6 46  1  0  0  0  0
  7  8  1  0  0  0  0
  7 15  1  0  0  0  0
  7 47  1  0  0  0  0
  8  9  1  0  0  0  0
  8 48  1  0  0  0  0
  8 49  1  0  0  0  0
  9 10  1  0  0  0  0
  9 14  2  0  0  0  0
 10 11  2  0  0  0  0
 10 50  1  0  0  0  0
 11 12  1  0  0  0  0
 11 51  1  0  0  0  0
 12 13  2  0  0  0  0
 12 52  1  0  0  0  0
 13 14  1  0  0  0  0
 13 53  1  0  0  0  0
 14 54  1  0  0  0  0
 15 16  1  0  0  0  0
 15 55  1  0  0  0  0
 16 17  2  0  0  0  0
 16 18  1  0  0  0  0
 18 19  2  0  0  0  0
 18 34  1  0  0  0  0
 19 20  1  0  0  0  0
 19 56  1  0  0  0  0
 20 21  1  0  0  0  0
 20 35  2  0  0  0  0
 21 22  1  0  0  0  0
 21 23  1  0  0  0  0
 22 57  1  0  0  0  0
 22 58  1  0  0  0  0
 22 59  1  0  0  0  0
 23 24  2  0  0  0  0
 23 25  2  0  0  0  0
 23 26  1  0  0  0  0
 26 27  1  0  0  0  0
 26 60  1  0  0  0  0
 26 61  1  0  0  0  0
 27 28  1  0  0  0  0
 27 62  1  0  0  0  0
 27 63  1  0  0  0  0
 28 29  2  0  0  0  0
 28 35  1  0  0  0  0
 29 30  1  0  0  0  0
 29 64  1  0  0  0  0
 30 31  1  0  0  0  0
 30 33  1  0  0  0  0
 31 32  1  0  0  0  0
 31 65  1  0  0  0  0
 31 66  1  0  0  0  0
 32 67  1  0  0  0  0
 32 68  1  0  0  0  0
 32 69  1  0  0  0  0
 33 34  2  0  0  0  0
 33 35  1  0  0  0  0
 34 70  1  0  0  0  0
M  CHG  1   3   1
M  END
>  <PARENT_CMPD_ID>
CHEMBL549458

>  <STANDARD_TYPE>
IC50

>  <RELATION>
=

>  <STANDARD_VALUE>
23

>  <STANDARD_UNITS>
nM

>  <COMPOUND_KEY>
13

>  <PUBMED_ID>
19406640

>  <JOURNAL>
Bioorg. Med. Chem. Lett.

>  <YEAR>
2009

>  <VOLUME>
19

>  <FIRST_PAGE>
3674

>  <Company>
GSK

>  <idx>
530

>  <Model>
Valid

>  <target>
7.6382723

>  <des_pred_mlr>
6.7384901

>  <RF_Canvas>
7.4184437

>  <DNN_Canvas>
7.2475471

>  <pred_CoMFA>
6.8874998

>  <pred_COMSIA>
5.4780002

>  <pred_abm5>
6.0315781

>  <pred_ff8>
6.6612482

>  <pred_gau6>
5.9980626

>  <CID>
BACE_530

>  <active>
1

>  <des_class_bayes>
0

>  <maacs_class_bayes>
1

>  <radial_class_bayes>
1

>  <dend_class_bayes>
1

>  <molprint_class_bayes>
1

>  <RF_canvas>
1

>  <DNN_canvas>
1

$$$$
CHEMBL508753
  MOE2015           3D

 84 87  0  0  1  0  0  0  0  0999 V2000
   29.3990   11.8900   19.9210 C   0  0  0  0  0  0  0  0  0  0  0  0
   29.1690   11.3770   21.3220 C   0  0  0  0  0  0  0  0  0  0  0  0
   29.2270   12.4970   22.2250 N   0  0  0  0  0  0  0  0  0  0  0  0
   28.1780   13.2150   22.7700 C   0  0  0  0  0  0  0  0  0  0  0  0
   26.8570   12.7790   22.7380 C   0  0  0  0  0  0  0  0  0  0  0  0
   25.8460   13.3910   23.4910 C   0  0  0  0  0  0  0  0  0  0  0  0
   26.1580   14.5040   24.2600 C   0  0  0  0  0  0  0  0  0  0  0  0
   27.4620   15.0170   24.2490 C   0  0  0  0  0  0  0  0  0  0  0  0
   27.7120   16.1000   25.1610 N   0  0  0  0  0  0  0  0  0  0  0  0
   27.5040   17.4870   24.7520 C   0  0  0  0  0  0  0  0  0  0  0  0
   28.8300   18.1900   24.4420 C   0  0  0  0  0  0  0  0  0  0  0  0
   29.9730   17.9780   25.4500 C   0  0  0  0  0  0  0  0  0  0  0  0
   30.2030   16.5550   25.9520 C   0  0  0  0  0  0  0  0  0  0  0  0
   28.6810   15.8530   26.5230 S   0  0  0  0  0  0  0  0  0  0  0  0
   28.8330   14.4410   26.7790 O   0  0  0  0  0  0  0  0  0  0  0  0
   28.3060   16.7540   27.5920 O   0  0  0  0  0  0  0  0  0  0  0  0
   28.4430   14.4360   23.4160 C   0  0  0  0  0  0  0  0  0  0  0  0
   29.7950   15.0210   23.1540 C   0  0  0  0  0  0  0  0  0  0  0  0
   24.4610   12.8160   23.4910 C   0  0  0  0  0  0  0  0  0  0  0  0
   23.4460   13.4920   23.6020 O   0  0  0  0  0  0  0  0  0  0  0  0
   24.3970   11.4490   23.2830 N   0  0  0  0  0  0  0  0  0  0  0  0
   23.1570   10.7500   22.9560 C   0  0  3  0  0  0  0  0  0  0  0  0
   23.4000    9.8030   21.7570 C   0  0  0  0  0  0  0  0  0  0  0  0
   24.2250   10.4230   20.6580 C   0  0  0  0  0  0  0  0  0  0  0  0
   25.4060    9.8080   20.2420 C   0  0  0  0  0  0  0  0  0  0  0  0
   26.2010   10.3960   19.2670 C   0  0  0  0  0  0  0  0  0  0  0  0
   25.8320   11.6070   18.7050 C   0  0  0  0  0  0  0  0  0  0  0  0
   24.6560   12.2210   19.1030 C   0  0  0  0  0  0  0  0  0  0  0  0
   23.8490   11.6270   20.0650 C   0  0  0  0  0  0  0  0  0  0  0  0
   22.5860    9.9890   24.1690 C   0  0  3  0  0  0  0  0  0  0  0  0
   21.4390    9.1950   23.8210 O   0  0  0  0  0  0  0  0  0  0  0  0
   22.1540   10.9200   25.3000 C   0  0  0  0  0  0  0  0  0  0  0  0
   21.3800   10.0800   26.2810 N   0  3  0  0  0  0  0  0  0  0  0  0
   20.4380   10.8180   27.1550 C   0  0  0  0  0  0  0  0  0  0  0  0
   19.2570   11.3580   26.4060 C   0  0  0  0  0  0  0  0  0  0  0  0
   18.3970   10.5000   25.7190 C   0  0  0  0  0  0  0  0  0  0  0  0
   17.3420   11.0020   24.9700 C   0  0  0  0  0  0  0  0  0  0  0  0
   17.1220   12.3670   24.9160 C   0  0  0  0  0  0  0  0  0  0  0  0
   17.9520   13.2330   25.6210 C   0  0  0  0  0  0  0  0  0  0  0  0
   19.0210   12.7270   26.3570 C   0  0  0  0  0  0  0  0  0  0  0  0
   17.7160   14.7040   25.5460 C   0  0  0  0  0  0  0  0  0  0  0  0
   16.3980   15.0280   25.5990 F   0  0  0  0  0  0  0  0  0  0  0  0
   18.1940   15.2400   24.3940 F   0  0  0  0  0  0  0  0  0  0  0  0
   18.3140   15.3870   26.5580 F   0  0  0  0  0  0  0  0  0  0  0  0
   29.4000   11.0630   19.2040 H   0  0  0  0  0  0  0  0  0  0  0  0
   30.3650   12.4020   19.8410 H   0  0  0  0  0  0  0  0  0  0  0  0
   28.6240   12.6030   19.6240 H   0  0  0  0  0  0  0  0  0  0  0  0
   29.9760   10.6820   21.5790 H   0  0  0  0  0  0  0  0  0  0  0  0
   28.2420   10.8050   21.3970 H   0  0  0  0  0  0  0  0  0  0  0  0
   30.1690   12.7710   22.4790 H   0  0  0  0  0  0  0  0  0  0  0  0
   26.6140   11.9150   22.1310 H   0  0  0  0  0  0  0  0  0  0  0  0
   25.3970   14.9650   24.8850 H   0  0  0  0  0  0  0  0  0  0  0  0
   26.8480   17.5430   23.8750 H   0  0  0  0  0  0  0  0  0  0  0  0
   26.9810   18.0180   25.5560 H   0  0  0  0  0  0  0  0  0  0  0  0
   29.1660   17.9130   23.4390 H   0  0  0  0  0  0  0  0  0  0  0  0
   28.6340   19.2680   24.3710 H   0  0  0  0  0  0  0  0  0  0  0  0
   29.7630   18.6180   26.3180 H   0  0  0  0  0  0  0  0  0  0  0  0
   30.9060   18.3620   25.0200 H   0  0  0  0  0  0  0  0  0  0  0  0
   30.8700   16.5870   26.8220 H   0  0  0  0  0  0  0  0  0  0  0  0
   30.6930   15.9080   25.2370 H   0  0  0  0  0  0  0  0  0  0  0  0
   30.5620   14.5030   23.7360 H   0  0  0  0  0  0  0  0  0  0  0  0
   29.8370   16.0820   23.3400 H   0  0  0  0  0  0  0  0  0  0  0  0
   30.0540   14.9380   22.0910 H   0  0  0  0  0  0  0  0  0  0  0  0
   25.2470   10.8970   23.3380 H   0  0  0  0  0  0  0  0  0  0  0  0
   22.4140   11.4920   22.6370 H   0  0  0  0  0  0  0  0  0  0  0  0
   23.9060    8.8980   22.1190 H   0  0  0  0  0  0  0  0  0  0  0  0
   22.4450    9.4710   21.3320 H   0  0  0  0  0  0  0  0  0  0  0  0
   25.7240    8.8640   20.6780 H   0  0  0  0  0  0  0  0  0  0  0  0
   27.1160    9.9060   18.9470 H   0  0  0  0  0  0  0  0  0  0  0  0
   26.4570   12.0680   17.9450 H   0  0  0  0  0  0  0  0  0  0  0  0
   24.3570   13.1660   18.6550 H   0  0  0  0  0  0  0  0  0  0  0  0
   22.9290   12.1270   20.3570 H   0  0  0  0  0  0  0  0  0  0  0  0
   23.3400    9.2900   24.5530 H   0  0  0  0  0  0  0  0  0  0  0  0
   20.9320    9.6620   23.1270 H   0  0  0  0  0  0  0  0  0  0  0  0
   21.4790   11.6920   24.9210 H   0  0  0  0  0  0  0  0  0  0  0  0
   22.9910   11.3770   25.8350 H   0  0  0  0  0  0  0  0  0  0  0  0
   20.8860    9.3810   25.6960 H   0  0  0  0  0  0  0  0  0  0  0  0
   22.0430    9.5390   26.8490 H   0  0  0  0  0  0  0  0  0  0  0  0
   20.0960   10.1080   27.9170 H   0  0  0  0  0  0  0  0  0  0  0  0
   21.0120   11.6020   27.6600 H   0  0  0  0  0  0  0  0  0  0  0  0
   18.5340    9.4210   25.7550 H   0  0  0  0  0  0  0  0  0  0  0  0
   16.6820   10.3240   24.4340 H   0  0  0  0  0  0  0  0  0  0  0  0
   16.2900   12.7520   24.3270 H   0  0  0  0  0  0  0  0  0  0  0  0
   19.6810   13.4160   26.8860 H   0  0  0  0  0  0  0  0  0  0  0  0
  1  2  1  0  0  0  0
  1 45  1  0  0  0  0
  1 46  1  0  0  0  0
  1 47  1  0  0  0  0
  2  3  1  0  0  0  0
  2 48  1  0  0  0  0
  2 49  1  0  0  0  0
  3  4  1  0  0  0  0
  3 50  1  0  0  0  0
  4  5  1  0  0  0  0
  4 17  2  0  0  0  0
  5  6  2  0  0  0  0
  5 51  1  0  0  0  0
  6  7  1  0  0  0  0
  6 19  1  0  0  0  0
  7  8  2  0  0  0  0
  7 52  1  0  0  0  0
  8  9  1  0  0  0  0
  8 17  1  0  0  0  0
  9 10  1  0  0  0  0
  9 14  1  0  0  0  0
 10 11  1  0  0  0  0
 10 53  1  0  0  0  0
 10 54  1  0  0  0  0
 11 12  1  0  0  0  0
 11 55  1  0  0  0  0
 11 56  1  0  0  0  0
 12 13  1  0  0  0  0
 12 57  1  0  0  0  0
 12 58  1  0  0  0  0
 13 14  1  0  0  0  0
 13 59  1  0  0  0  0
 13 60  1  0  0  0  0
 14 15  2  0  0  0  0
 14 16  2  0  0  0  0
 17 18  1  0  0  0  0
 18 61  1  0  0  0  0
 18 62  1  0  0  0  0
 18 63  1  0  0  0  0
 19 20  2  0  0  0  0
 19 21  1  0  0  0  0
 21 22  1  0  0  0  0
 21 64  1  0  0  0  0
 22 23  1  0  0  0  0
 22 30  1  0  0  0  0
 22 65  1  0  0  0  0
 23 24  1  0  0  0  0
 23 66  1  0  0  0  0
 23 67  1  0  0  0  0
 24 25  1  0  0  0  0
 24 29  2  0  0  0  0
 25 26  2  0  0  0  0
 25 68  1  0  0  0  0
 26 27  1  0  0  0  0
 26 69  1  0  0  0  0
 27 28  2  0  0  0  0
 27 70  1  0  0  0  0
 28 29  1  0  0  0  0
 28 71  1  0  0  0  0
 29 72  1  0  0  0  0
 30 31  1  0  0  0  0
 30 32  1  0  0  0  0
 30 73  1  0  0  0  0
 31 74  1  0  0  0  0
 32 33  1  0  0  0  0
 32 75  1  0  0  0  0
 32 76  1  0  0  0  0
 33 34  1  0  0  0  0
 33 77  1  0  0  0  0
 33 78  1  0  0  0  0
 34 35  1  0  0  0  0
 34 79  1  0  0  0  0
 34 80  1  0  0  0  0
 35 36  1  0  0  0  0
 35 40  2  0  0  0  0
 36 37  2  0  0  0  0
 36 81  1  0  0  0  0
 37 38  1  0  0  0  0
 37 82  1  0  0  0  0
 38 39  2  0  0  0  0
 38 83  1  0  0  0  0
 39 40  1  0  0  0  0
 39 41  1  0  0  0  0
 40 84  1  0  0  0  0
 41 42  1  0  0  0  0
 41 43  1  0  0  0  0
 41 44  1  0  0  0  0
M  CHG  1  33   1
M  END
>  <PARENT_CMPD_ID>
CHEMBL508753

>  <STANDARD_TYPE>
IC50

>  <RELATION>
=

>  <STANDARD_VALUE>
23

>  <STANDARD_UNITS>
nM

>  <COMPOUND_KEY>
10

>  <PUBMED_ID>
19428244

>  <JOURNAL>
Bioorg. Med. Chem. Lett.

>  <YEAR>
2009

>  <VOLUME>
19

>  <FIRST_PAGE>
3664

>  <Company>
GSK

>  <idx>
531

>  <Model>
Valid

>  <target>
7.6382723

>  <des_pred_mlr>
7.39218

>  <RF_Canvas>
8.1824465

>  <DNN_Canvas>
7.7902393

>  <pred_CoMFA>
7.0967002

>  <pred_COMSIA>
7.6301999

>  <pred_abm5>
6.995482

>  <pred_ff8>
8.5352926

>  <pred_gau6>
7.4850283

>  <CID>
BACE_531

>  <active>
1

>  <des_class_bayes>
1

>  <maacs_class_bayes>
1

>  <radial_class_bayes>
1

>  <dend_class_bayes>
1

>  <molprint_class_bayes>
1

>  <RF_canvas>
1

>  <DNN_canvas>
1

$$$$
CHEMBL501338
  MOE2015           3D

 79 83  0  0  1  0  0  0  0  0999 V2000
   29.6270   11.2030   21.5550 C   0  0  0  0  0  0  0  0  0  0  0  0
   29.3670   12.6170   21.0840 C   0  0  0  0  0  0  0  0  0  0  0  0
   29.1330   13.5430   22.1730 N   0  0  0  0  0  0  0  0  0  0  0  0
   30.0710   14.4000   22.6660 C   0  0  0  0  0  0  0  0  0  0  0  0
   29.4890   15.1420   23.6600 C   0  0  0  0  0  0  0  0  0  0  0  0
   28.1420   14.7160   23.7850 C   0  0  0  0  0  0  0  0  0  0  0  0
   27.0510   15.1190   24.5780 C   0  0  0  0  0  0  0  0  0  0  0  0
   25.8090   14.5090   24.3900 C   0  0  0  0  0  0  0  0  0  0  0  0
   25.6580   13.4630   23.5020 C   0  0  0  0  0  0  0  0  0  0  0  0
   26.7180   13.0540   22.6940 C   0  0  0  0  0  0  0  0  0  0  0  0
   27.9460   13.7050   22.8450 C   0  0  0  0  0  0  0  0  0  0  0  0
   24.3340   12.8080   23.4300 C   0  0  0  0  0  0  0  0  0  0  0  0
   23.2970   13.4480   23.5500 O   0  0  0  0  0  0  0  0  0  0  0  0
   24.3580   11.4520   23.2040 N   0  0  0  0  0  0  0  0  0  0  0  0
   23.1500   10.6990   22.8930 C   0  0  3  0  0  0  0  0  0  0  0  0
   23.4290    9.7480   21.7070 C   0  0  0  0  0  0  0  0  0  0  0  0
   24.2640   10.3810   20.6220 C   0  0  0  0  0  0  0  0  0  0  0  0
   23.8540   11.5580   19.9970 C   0  0  0  0  0  0  0  0  0  0  0  0
   24.6700   12.1810   19.0620 C   0  0  0  0  0  0  0  0  0  0  0  0
   25.8940   11.6230   18.7250 C   0  0  0  0  0  0  0  0  0  0  0  0
   26.3010   10.4400   19.3210 C   0  0  0  0  0  0  0  0  0  0  0  0
   25.4910    9.8220   20.2640 C   0  0  0  0  0  0  0  0  0  0  0  0
   22.6140    9.9630   24.1370 C   0  0  3  0  0  0  0  0  0  0  0  0
   21.4590    9.1710   23.8200 O   0  0  0  0  0  0  0  0  0  0  0  0
   22.1710   10.9390   25.2310 C   0  0  0  0  0  0  0  0  0  0  0  0
   21.3620   10.1490   26.2230 N   0  3  0  0  0  0  0  0  0  0  0  0
   20.4680   10.9370   27.1130 C   0  0  0  0  0  0  0  0  0  0  0  0
   19.3190   11.5950   26.4090 C   0  0  0  0  0  0  0  0  0  0  0  0
   19.1470   12.9770   26.4640 C   0  0  0  0  0  0  0  0  0  0  0  0
   18.0980   13.5890   25.7910 C   0  0  0  0  0  0  0  0  0  0  0  0
   17.2040   12.8280   25.0570 C   0  0  0  0  0  0  0  0  0  0  0  0
   17.3440   11.4410   25.0070 C   0  0  0  0  0  0  0  0  0  0  0  0
   18.4030   10.8340   25.6850 C   0  0  0  0  0  0  0  0  0  0  0  0
   16.3840   10.6090   24.2030 C   0  0  0  0  0  0  0  0  0  0  0  0
   16.3980    9.2910   24.5430 F   0  0  0  0  0  0  0  0  0  0  0  0
   15.0920   11.0130   24.3310 F   0  0  0  0  0  0  0  0  0  0  0  0
   16.6650   10.6500   22.8730 F   0  0  0  0  0  0  0  0  0  0  0  0
   27.1430   16.1070   25.5560 N   0  0  0  0  0  0  0  0  0  0  0  0
   26.1580   17.1380   25.6950 C   0  0  0  0  0  0  0  0  0  0  0  0
   26.9050   18.2150   26.4400 C   0  0  0  0  0  0  0  0  0  0  0  0
   27.8490   17.4310   27.3360 C   0  0  0  0  0  0  0  0  0  0  0  0
   28.1150   16.1740   26.5480 C   0  0  0  0  0  0  0  0  0  0  0  0
   28.9720   15.3600   26.8460 O   0  0  0  0  0  0  0  0  0  0  0  0
   29.8150   10.5470   20.6990 H   0  0  0  0  0  0  0  0  0  0  0  0
   28.7730   10.8000   22.1080 H   0  0  0  0  0  0  0  0  0  0  0  0
   30.5000   11.1620   22.2150 H   0  0  0  0  0  0  0  0  0  0  0  0
   28.4980   12.6550   20.4190 H   0  0  0  0  0  0  0  0  0  0  0  0
   30.2250   12.9850   20.5090 H   0  0  0  0  0  0  0  0  0  0  0  0
   31.0790   14.4240   22.2720 H   0  0  0  0  0  0  0  0  0  0  0  0
   29.9820   15.9150   24.2340 H   0  0  0  0  0  0  0  0  0  0  0  0
   24.9580   14.8090   24.9990 H   0  0  0  0  0  0  0  0  0  0  0  0
   26.5920   12.2790   21.9460 H   0  0  0  0  0  0  0  0  0  0  0  0
   25.2470   10.9600   23.2260 H   0  0  0  0  0  0  0  0  0  0  0  0
   22.3780   11.4040   22.5570 H   0  0  0  0  0  0  0  0  0  0  0  0
   23.9450    8.8540   22.0820 H   0  0  0  0  0  0  0  0  0  0  0  0
   22.4860    9.3980   21.2690 H   0  0  0  0  0  0  0  0  0  0  0  0
   22.8970   12.0130   20.2450 H   0  0  0  0  0  0  0  0  0  0  0  0
   24.3420   13.1020   18.5880 H   0  0  0  0  0  0  0  0  0  0  0  0
   26.5270   12.1090   17.9870 H   0  0  0  0  0  0  0  0  0  0  0  0
   27.2570    9.9990   19.0520 H   0  0  0  0  0  0  0  0  0  0  0  0
   25.8370    8.9000   20.7270 H   0  0  0  0  0  0  0  0  0  0  0  0
   23.3750    9.2850   24.5420 H   0  0  0  0  0  0  0  0  0  0  0  0
   21.7250    8.4530   23.2150 H   0  0  0  0  0  0  0  0  0  0  0  0
   21.5100   11.7070   24.8170 H   0  0  0  0  0  0  0  0  0  0  0  0
   23.0050   11.4010   25.7670 H   0  0  0  0  0  0  0  0  0  0  0  0
   20.8170    9.4990   25.6270 H   0  0  0  0  0  0  0  0  0  0  0  0
   21.9850    9.5550   26.7820 H   0  0  0  0  0  0  0  0  0  0  0  0
   20.0830   10.2350   27.8610 H   0  0  0  0  0  0  0  0  0  0  0  0
   21.1030   11.6620   27.6340 H   0  0  0  0  0  0  0  0  0  0  0  0
   19.8390   13.6020   27.0260 H   0  0  0  0  0  0  0  0  0  0  0  0
   17.9810   14.6700   25.8350 H   0  0  0  0  0  0  0  0  0  0  0  0
   16.3900   13.3200   24.5270 H   0  0  0  0  0  0  0  0  0  0  0  0
   18.5010    9.7490   25.6420 H   0  0  0  0  0  0  0  0  0  0  0  0
   25.7970   17.4890   24.7240 H   0  0  0  0  0  0  0  0  0  0  0  0
   25.3210   16.7590   26.2930 H   0  0  0  0  0  0  0  0  0  0  0  0
   27.4880   18.8230   25.7360 H   0  0  0  0  0  0  0  0  0  0  0  0
   26.2460   18.8860   26.9980 H   0  0  0  0  0  0  0  0  0  0  0  0
   27.3680   17.1590   28.2810 H   0  0  0  0  0  0  0  0  0  0  0  0
   28.7760   17.9760   27.5300 H   0  0  0  0  0  0  0  0  0  0  0  0
  1  2  1  0  0  0  0
  1 44  1  0  0  0  0
  1 45  1  0  0  0  0
  1 46  1  0  0  0  0
  2  3  1  0  0  0  0
  2 47  1  0  0  0  0
  2 48  1  0  0  0  0
  3  4  1  0  0  0  0
  3 11  1  0  0  0  0
  4  5  2  0  0  0  0
  4 49  1  0  0  0  0
  5  6  1  0  0  0  0
  5 50  1  0  0  0  0
  6  7  1  0  0  0  0
  6 11  2  0  0  0  0
  7  8  2  0  0  0  0
  7 38  1  0  0  0  0
  8  9  1  0  0  0  0
  8 51  1  0  0  0  0
  9 10  2  0  0  0  0
  9 12  1  0  0  0  0
 10 11  1  0  0  0  0
 10 52  1  0  0  0  0
 12 13  2  0  0  0  0
 12 14  1  0  0  0  0
 14 15  1  0  0  0  0
 14 53  1  0  0  0  0
 15 16  1  0  0  0  0
 15 23  1  0  0  0  0
 15 54  1  0  0  0  0
 16 17  1  0  0  0  0
 16 55  1  0  0  0  0
 16 56  1  0  0  0  0
 17 18  1  0  0  0  0
 17 22  2  0  0  0  0
 18 19  2  0  0  0  0
 18 57  1  0  0  0  0
 19 20  1  0  0  0  0
 19 58  1  0  0  0  0
 20 21  2  0  0  0  0
 20 59  1  0  0  0  0
 21 22  1  0  0  0  0
 21 60  1  0  0  0  0
 22 61  1  0  0  0  0
 23 24  1  0  0  0  0
 23 25  1  0  0  0  0
 23 62  1  0  0  0  0
 24 63  1  0  0  0  0
 25 26  1  0  0  0  0
 25 64  1  0  0  0  0
 25 65  1  0  0  0  0
 26 27  1  0  0  0  0
 26 66  1  0  0  0  0
 26 67  1  0  0  0  0
 27 28  1  0  0  0  0
 27 68  1  0  0  0  0
 27 69  1  0  0  0  0
 28 29  1  0  0  0  0
 28 33  2  0  0  0  0
 29 30  2  0  0  0  0
 29 70  1  0  0  0  0
 30 31  1  0  0  0  0
 30 71  1  0  0  0  0
 31 32  2  0  0  0  0
 31 72  1  0  0  0  0
 32 33  1  0  0  0  0
 32 34  1  0  0  0  0
 33 73  1  0  0  0  0
 34 35  1  0  0  0  0
 34 36  1  0  0  0  0
 34 37  1  0  0  0  0
 38 39  1  0  0  0  0
 38 42  1  0  0  0  0
 39 40  1  0  0  0  0
 39 74  1  0  0  0  0
 39 75  1  0  0  0  0
 40 41  1  0  0  0  0
 40 76  1  0  0  0  0
 40 77  1  0  0  0  0
 41 42  1  0  0  0  0
 41 78  1  0  0  0  0
 41 79  1  0  0  0  0
 42 43  2  0  0  0  0
M  CHG  1  26   1
M  END
>  <PARENT_CMPD_ID>
CHEMBL501338

>  <STANDARD_TYPE>
IC50

>  <RELATION>
=

>  <STANDARD_VALUE>
23

>  <STANDARD_UNITS>
nM

>  <COMPOUND_KEY>
17

>  <PUBMED_ID>
19428244

>  <JOURNAL>
Bioorg. Med. Chem. Lett.

>  <YEAR>
2009

>  <VOLUME>
19

>  <FIRST_PAGE>
3664

>  <Company>
GSK

>  <idx>
532

>  <Model>
Valid

>  <target>
7.6382723

>  <des_pred_mlr>
7.2525702

>  <RF_Canvas>
7.3546376

>  <DNN_Canvas>
7.1377287

>  <pred_CoMFA>
7.4415998

>  <pred_COMSIA>
7.6240001

>  <pred_abm5>
7.3045077

>  <pred_ff8>
7.3241014

>  <pred_gau6>
6.5104699

>  <CID>
BACE_532

>  <active>
1

>  <des_class_bayes>
1

>  <maacs_class_bayes>
1

>  <radial_class_bayes>
1

>  <dend_class_bayes>
1

>  <molprint_class_bayes>
1

>  <RF_canvas>
1

>  <DNN_canvas>
1

$$$$
CHEMBL535008
  MOE2015           3D

 88 91  0  0  1  0  0  0  0  0999 V2000
   29.3170   12.7240   20.0470 C   0  0  0  0  0  0  0  0  0  0  0  0
   29.7680   12.5480   21.4750 C   0  0  0  0  0  0  0  0  0  0  0  0
   29.3110   13.6540   22.3580 C   0  0  0  0  0  0  0  0  0  0  0  0
   30.0910   14.6580   22.9090 C   0  0  0  0  0  0  0  0  0  0  0  0
   29.3480   15.2760   23.8640 N   0  0  0  0  0  0  0  0  0  0  0  0
   29.7880   16.1630   24.9450 C   0  0  0  0  0  0  0  0  0  0  0  0
   28.6640   15.9870   26.3810 S   0  0  0  0  0  0  0  0  0  0  0  0
   28.6530   14.6030   26.8110 O   0  0  0  0  0  0  0  0  0  0  0  0
   28.7230   17.0360   27.3720 O   0  0  0  0  0  0  0  0  0  0  0  0
   27.1920   16.2740   25.5080 N   0  0  0  0  0  0  0  0  0  0  0  0
   26.0780   16.8660   26.2470 C   0  0  0  0  0  0  0  0  0  0  0  0
   26.9580   15.2520   24.5460 C   0  0  0  0  0  0  0  0  0  0  0  0
   25.8160   14.4680   24.5210 C   0  0  0  0  0  0  0  0  0  0  0  0
   25.7720   13.3560   23.6980 C   0  0  0  0  0  0  0  0  0  0  0  0
   26.8170   13.0390   22.8160 C   0  0  0  0  0  0  0  0  0  0  0  0
   28.0020   13.7870   22.8950 C   0  0  0  0  0  0  0  0  0  0  0  0
   28.0380   14.8630   23.7580 C   0  0  0  0  0  0  0  0  0  0  0  0
   24.8630   12.2640   24.0760 C   0  0  0  0  0  0  0  0  0  0  0  0
   25.0250   11.7090   25.1570 O   0  0  0  0  0  0  0  0  0  0  0  0
   23.9890   11.8380   23.1190 N   0  0  0  0  0  0  0  0  0  0  0  0
   23.5290   10.4580   23.0320 C   0  0  3  0  0  0  0  0  0  0  0  0
   23.0400   10.1390   21.6080 C   0  0  0  0  0  0  0  0  0  0  0  0
   24.0640   10.5530   20.5770 C   0  0  0  0  0  0  0  0  0  0  0  0
   23.8840   11.7160   19.8270 C   0  0  0  0  0  0  0  0  0  0  0  0
   24.8630   12.1420   18.9400 C   0  0  0  0  0  0  0  0  0  0  0  0
   26.0250   11.4050   18.7820 C   0  0  0  0  0  0  0  0  0  0  0  0
   26.2150   10.2460   19.5190 C   0  0  0  0  0  0  0  0  0  0  0  0
   25.2400    9.8210   20.4120 C   0  0  0  0  0  0  0  0  0  0  0  0
   22.6970    9.8410   24.1960 C   0  0  3  0  0  0  0  0  0  0  0  0
   21.5140    9.1390   23.7760 O   0  0  0  0  0  0  0  0  0  0  0  0
   22.1530   10.8530   25.2140 C   0  0  0  0  0  0  0  0  0  0  0  0
   21.4190   10.0570   26.2640 N   0  3  0  0  0  0  0  0  0  0  0  0
   20.6180   10.7530   27.3280 C   0  0  0  0  0  0  0  0  0  0  0  0
   21.0850   12.1900   27.5470 C   0  0  0  0  0  0  0  0  0  0  0  0
   20.8970    9.9740   28.6340 C   0  0  0  0  0  0  0  0  0  0  0  0
   19.1220   10.5990   27.0210 C   0  0  0  0  0  0  0  0  0  0  0  0
   18.5560   11.2490   25.7750 C   0  0  0  0  0  0  0  0  0  0  0  0
   18.4500   12.7600   25.8970 C   0  0  0  0  0  0  0  0  0  0  0  0
   17.1860   13.2970   25.2410 C   0  0  0  0  0  0  0  0  0  0  0  0
   17.0940   12.9230   23.7700 C   0  0  0  0  0  0  0  0  0  0  0  0
   17.1430   14.8100   25.4020 C   0  0  0  0  0  0  0  0  0  0  0  0
   29.6170   11.8630   19.4400 H   0  0  0  0  0  0  0  0  0  0  0  0
   29.7610   13.6210   19.6020 H   0  0  0  0  0  0  0  0  0  0  0  0
   28.2310   12.8290   19.9780 H   0  0  0  0  0  0  0  0  0  0  0  0
   30.8620   12.4790   21.5000 H   0  0  0  0  0  0  0  0  0  0  0  0
   29.3910   11.5930   21.8610 H   0  0  0  0  0  0  0  0  0  0  0  0
   31.1440   14.8770   22.7840 H   0  0  0  0  0  0  0  0  0  0  0  0
   29.7590   17.1940   24.5870 H   0  0  0  0  0  0  0  0  0  0  0  0
   30.7910   15.8660   25.2610 H   0  0  0  0  0  0  0  0  0  0  0  0
   25.2390   17.0820   25.5770 H   0  0  0  0  0  0  0  0  0  0  0  0
   26.3750   17.8230   26.6860 H   0  0  0  0  0  0  0  0  0  0  0  0
   25.7330   16.1980   27.0420 H   0  0  0  0  0  0  0  0  0  0  0  0
   25.0200   14.6280   25.2430 H   0  0  0  0  0  0  0  0  0  0  0  0
   26.7890   12.1250   22.2280 H   0  0  0  0  0  0  0  0  0  0  0  0
   23.7270   12.4950   22.3890 H   0  0  0  0  0  0  0  0  0  0  0  0
   24.4780    9.9060   23.1260 H   0  0  0  0  0  0  0  0  0  0  0  0
   22.8490    9.0660   21.4890 H   0  0  0  0  0  0  0  0  0  0  0  0
   22.0880   10.6510   21.4180 H   0  0  0  0  0  0  0  0  0  0  0  0
   22.9720   12.3000   19.9230 H   0  0  0  0  0  0  0  0  0  0  0  0
   24.7090   13.0450   18.3540 H   0  0  0  0  0  0  0  0  0  0  0  0
   26.7860   11.7330   18.0790 H   0  0  0  0  0  0  0  0  0  0  0  0
   27.1290    9.6700   19.3990 H   0  0  0  0  0  0  0  0  0  0  0  0
   25.4120    8.9140   20.9860 H   0  0  0  0  0  0  0  0  0  0  0  0
   23.3220    9.1110   24.7250 H   0  0  0  0  0  0  0  0  0  0  0  0
   21.7910    8.3590   23.2580 H   0  0  0  0  0  0  0  0  0  0  0  0
   21.4230   11.5210   24.7500 H   0  0  0  0  0  0  0  0  0  0  0  0
   22.9100   11.4160   25.7480 H   0  0  0  0  0  0  0  0  0  0  0  0
   22.1110    9.4360   26.7030 H   0  0  0  0  0  0  0  0  0  0  0  0
   20.8220    9.4180   25.7070 H   0  0  0  0  0  0  0  0  0  0  0  0
   20.4760   12.6850   28.3130 H   0  0  0  0  0  0  0  0  0  0  0  0
   21.0420   12.8040   26.6460 H   0  0  0  0  0  0  0  0  0  0  0  0
   22.1230   12.2200   27.8990 H   0  0  0  0  0  0  0  0  0  0  0  0
   20.3320   10.3960   29.4730 H   0  0  0  0  0  0  0  0  0  0  0  0
   21.9600   10.0090   28.9040 H   0  0  0  0  0  0  0  0  0  0  0  0
   20.6150    8.9190   28.5410 H   0  0  0  0  0  0  0  0  0  0  0  0
   18.8960    9.5240   26.9480 H   0  0  0  0  0  0  0  0  0  0  0  0
   18.5410   10.9470   27.8880 H   0  0  0  0  0  0  0  0  0  0  0  0
   19.1290   10.9730   24.8840 H   0  0  0  0  0  0  0  0  0  0  0  0
   17.5550   10.8200   25.6360 H   0  0  0  0  0  0  0  0  0  0  0  0
   19.3260   13.2250   25.4310 H   0  0  0  0  0  0  0  0  0  0  0  0
   18.4430   13.0660   26.9500 H   0  0  0  0  0  0  0  0  0  0  0  0
   16.3110   12.8800   25.7560 H   0  0  0  0  0  0  0  0  0  0  0  0
   17.9730   13.2690   23.2160 H   0  0  0  0  0  0  0  0  0  0  0  0
   16.2090   13.3770   23.3090 H   0  0  0  0  0  0  0  0  0  0  0  0
   17.0090   11.8420   23.6260 H   0  0  0  0  0  0  0  0  0  0  0  0
   17.9890   15.2920   24.9000 H   0  0  0  0  0  0  0  0  0  0  0  0
   17.1710   15.0940   26.4590 H   0  0  0  0  0  0  0  0  0  0  0  0
   16.2220   15.2220   24.9750 H   0  0  0  0  0  0  0  0  0  0  0  0
  1  2  1  0  0  0  0
  1 42  1  0  0  0  0
  1 43  1  0  0  0  0
  1 44  1  0  0  0  0
  2  3  1  0  0  0  0
  2 45  1  0  0  0  0
  2 46  1  0  0  0  0
  3  4  2  0  0  0  0
  3 16  1  0  0  0  0
  4  5  1  0  0  0  0
  4 47  1  0  0  0  0
  5  6  1  0  0  0  0
  5 17  1  0  0  0  0
  6  7  1  0  0  0  0
  6 48  1  0  0  0  0
  6 49  1  0  0  0  0
  7  8  2  0  0  0  0
  7  9  2  0  0  0  0
  7 10  1  0  0  0  0
 10 11  1  0  0  0  0
 10 12  1  0  0  0  0
 11 50  1  0  0  0  0
 11 51  1  0  0  0  0
 11 52  1  0  0  0  0
 12 13  1  0  0  0  0
 12 17  2  0  0  0  0
 13 14  2  0  0  0  0
 13 53  1  0  0  0  0
 14 15  1  0  0  0  0
 14 18  1  0  0  0  0
 15 16  2  0  0  0  0
 15 54  1  0  0  0  0
 16 17  1  0  0  0  0
 18 19  2  0  0  0  0
 18 20  1  0  0  0  0
 20 21  1  0  0  0  0
 20 55  1  0  0  0  0
 21 22  1  0  0  0  0
 21 29  1  0  0  0  0
 21 56  1  0  0  0  0
 22 23  1  0  0  0  0
 22 57  1  0  0  0  0
 22 58  1  0  0  0  0
 23 24  1  0  0  0  0
 23 28  2  0  0  0  0
 24 25  2  0  0  0  0
 24 59  1  0  0  0  0
 25 26  1  0  0  0  0
 25 60  1  0  0  0  0
 26 27  2  0  0  0  0
 26 61  1  0  0  0  0
 27 28  1  0  0  0  0
 27 62  1  0  0  0  0
 28 63  1  0  0  0  0
 29 30  1  0  0  0  0
 29 31  1  0  0  0  0
 29 64  1  0  0  0  0
 30 65  1  0  0  0  0
 31 32  1  0  0  0  0
 31 66  1  0  0  0  0
 31 67  1  0  0  0  0
 32 33  1  0  0  0  0
 32 68  1  0  0  0  0
 32 69  1  0  0  0  0
 33 34  1  0  0  0  0
 33 35  1  0  0  0  0
 33 36  1  0  0  0  0
 34 70  1  0  0  0  0
 34 71  1  0  0  0  0
 34 72  1  0  0  0  0
 35 73  1  0  0  0  0
 35 74  1  0  0  0  0
 35 75  1  0  0  0  0
 36 37  1  0  0  0  0
 36 76  1  0  0  0  0
 36 77  1  0  0  0  0
 37 38  1  0  0  0  0
 37 78  1  0  0  0  0
 37 79  1  0  0  0  0
 38 39  1  0  0  0  0
 38 80  1  0  0  0  0
 38 81  1  0  0  0  0
 39 40  1  0  0  0  0
 39 41  1  0  0  0  0
 39 82  1  0  0  0  0
 40 83  1  0  0  0  0
 40 84  1  0  0  0  0
 40 85  1  0  0  0  0
 41 86  1  0  0  0  0
 41 87  1  0  0  0  0
 41 88  1  0  0  0  0
M  CHG  1  32   1
M  END
>  <PARENT_CMPD_ID>
CHEMBL535008

>  <STANDARD_TYPE>
IC50

>  <RELATION>
=

>  <STANDARD_VALUE>
23

>  <STANDARD_UNITS>
nM

>  <COMPOUND_KEY>
23

>  <PUBMED_ID>
19477642

>  <JOURNAL>
Bioorg. Med. Chem. Lett.

>  <YEAR>
2009

>  <VOLUME>
19

>  <FIRST_PAGE>
3669

>  <Company>
GSK

>  <idx>
533

>  <Model>
Valid

>  <target>
7.6382723

>  <des_pred_mlr>
7.4905901

>  <RF_Canvas>
7.977284

>  <DNN_Canvas>
7.4726262

>  <pred_CoMFA>
7.2940998

>  <pred_COMSIA>
7.8853998

>  <pred_abm5>
7.0796041

>  <pred_ff8>
6.8036957

>  <pred_gau6>
6.5037265

>  <CID>
BACE_533

>  <active>
1

>  <des_class_bayes>
0

>  <maacs_class_bayes>
1

>  <radial_class_bayes>
1

>  <dend_class_bayes>
1

>  <molprint_class_bayes>
1

>  <RF_canvas>
1

>  <DNN_canvas>
1

$$$$
CHEMBL553387
  MOE2015           3D

 84 88  0  0  1  0  0  0  0  0999 V2000
   29.6450   10.9910   21.5460 C   0  0  0  0  0  0  0  0  0  0  0  0
   29.4400   12.3810   20.9840 C   0  0  0  0  0  0  0  0  0  0  0  0
   29.1740   13.3940   22.0370 C   0  0  0  0  0  0  0  0  0  0  0  0
   30.0720   14.3190   22.5220 C   0  0  0  0  0  0  0  0  0  0  0  0
   29.4300   15.1050   23.4270 N   0  0  0  0  0  0  0  0  0  0  0  0
   29.9850   16.2860   24.0500 C   0  0  0  0  0  0  0  0  0  0  0  0
   30.1730   16.2340   25.5480 C   0  0  0  0  0  0  0  0  0  0  0  0
   28.7150   15.8510   26.5050 S   0  0  0  0  0  0  0  0  0  0  0  0
   28.7540   14.4400   26.8210 O   0  0  0  0  0  0  0  0  0  0  0  0
   28.5850   16.8230   27.5700 O   0  0  0  0  0  0  0  0  0  0  0  0
   27.4290   16.1070   25.4380 N   0  0  0  0  0  0  0  0  0  0  0  0
   26.7320   17.4040   25.4270 C   0  0  0  0  0  0  0  0  0  0  0  0
   25.5930   17.3880   26.4340 C   0  0  0  0  0  0  0  0  0  0  0  0
   26.2310   17.8070   24.0440 C   0  0  0  0  0  0  0  0  0  0  0  0
   27.1600   15.0810   24.4960 C   0  0  0  0  0  0  0  0  0  0  0  0
   25.9120   14.4650   24.4430 C   0  0  0  0  0  0  0  0  0  0  0  0
   25.6770   13.4290   23.5540 C   0  0  0  0  0  0  0  0  0  0  0  0
   26.6880   12.9940   22.6900 C   0  0  0  0  0  0  0  0  0  0  0  0
   27.9530   13.6020   22.7330 C   0  0  0  0  0  0  0  0  0  0  0  0
   28.1540   14.6460   23.6220 C   0  0  0  0  0  0  0  0  0  0  0  0
   24.3290   12.8070   23.5060 C   0  0  0  0  0  0  0  0  0  0  0  0
   23.3030   13.4670   23.6090 O   0  0  0  0  0  0  0  0  0  0  0  0
   24.3150   11.4500   23.2790 N   0  0  0  0  0  0  0  0  0  0  0  0
   23.0980   10.7200   22.9400 C   0  0  3  0  0  0  0  0  0  0  0  0
   23.4040    9.7490   21.7730 C   0  0  0  0  0  0  0  0  0  0  0  0
   24.2450   10.3710   20.6830 C   0  0  0  0  0  0  0  0  0  0  0  0
   25.4670    9.8000   20.3270 C   0  0  0  0  0  0  0  0  0  0  0  0
   26.2800   10.4020   19.3760 C   0  0  0  0  0  0  0  0  0  0  0  0
   25.8830   11.5820   18.7660 C   0  0  0  0  0  0  0  0  0  0  0  0
   24.6640   12.1510   19.0990 C   0  0  0  0  0  0  0  0  0  0  0  0
   23.8450   11.5450   20.0430 C   0  0  0  0  0  0  0  0  0  0  0  0
   22.4900    9.9990   24.1690 C   0  0  3  0  0  0  0  0  0  0  0  0
   21.3880    9.1570   23.8080 O   0  0  0  0  0  0  0  0  0  0  0  0
   21.9150   11.0180   25.1710 C   0  0  0  0  0  0  0  0  0  0  0  0
   20.9210   10.3160   26.0780 N   0  3  0  0  0  0  0  0  0  0  0  0
   19.5590   10.9500   26.2880 C   0  0  0  0  0  0  0  0  0  0  0  0
   18.6910   10.6750   25.0600 C   0  0  0  0  0  0  0  0  0  0  0  0
   17.3850   11.4410   25.1020 C   0  0  0  0  0  0  0  0  0  0  0  0
   17.6760   12.8190   25.2850 O   0  0  0  0  0  0  0  0  0  0  0  0
   18.2510   13.0700   26.5620 C   0  0  0  0  0  0  0  0  0  0  0  0
   19.6280   12.4290   26.6370 C   0  0  0  0  0  0  0  0  0  0  0  0
   29.8520   10.2810   20.7390 H   0  0  0  0  0  0  0  0  0  0  0  0
   28.7580   10.6400   22.0840 H   0  0  0  0  0  0  0  0  0  0  0  0
   30.4900   10.9660   22.2430 H   0  0  0  0  0  0  0  0  0  0  0  0
   28.6090   12.3690   20.2700 H   0  0  0  0  0  0  0  0  0  0  0  0
   30.3300   12.6680   20.4100 H   0  0  0  0  0  0  0  0  0  0  0  0
   31.1050   14.4970   22.2530 H   0  0  0  0  0  0  0  0  0  0  0  0
   30.9560   16.4830   23.5780 H   0  0  0  0  0  0  0  0  0  0  0  0
   29.3400   17.1250   23.7670 H   0  0  0  0  0  0  0  0  0  0  0  0
   30.5340   17.2070   25.8990 H   0  0  0  0  0  0  0  0  0  0  0  0
   30.9230   15.4810   25.8140 H   0  0  0  0  0  0  0  0  0  0  0  0
   27.4470   18.1810   25.7270 H   0  0  0  0  0  0  0  0  0  0  0  0
   24.7830   16.7180   26.1320 H   0  0  0  0  0  0  0  0  0  0  0  0
   25.1630   18.3900   26.5380 H   0  0  0  0  0  0  0  0  0  0  0  0
   25.9300   17.0690   27.4250 H   0  0  0  0  0  0  0  0  0  0  0  0
   25.4250   17.1580   23.6850 H   0  0  0  0  0  0  0  0  0  0  0  0
   27.0380   17.7850   23.3050 H   0  0  0  0  0  0  0  0  0  0  0  0
   25.8340   18.8280   24.0680 H   0  0  0  0  0  0  0  0  0  0  0  0
   25.1220   14.7780   25.1180 H   0  0  0  0  0  0  0  0  0  0  0  0
   26.5080   12.2070   21.9650 H   0  0  0  0  0  0  0  0  0  0  0  0
   25.1880   10.9330   23.3230 H   0  0  0  0  0  0  0  0  0  0  0  0
   22.3580   11.4400   22.5640 H   0  0  0  0  0  0  0  0  0  0  0  0
   23.9270    8.8700   22.1740 H   0  0  0  0  0  0  0  0  0  0  0  0
   22.4730    9.3770   21.3290 H   0  0  0  0  0  0  0  0  0  0  0  0
   25.8070    8.8810   20.8000 H   0  0  0  0  0  0  0  0  0  0  0  0
   27.2340    9.9510   19.1140 H   0  0  0  0  0  0  0  0  0  0  0  0
   26.5200   12.0530   18.0230 H   0  0  0  0  0  0  0  0  0  0  0  0
   24.3430   13.0690   18.6130 H   0  0  0  0  0  0  0  0  0  0  0  0
   22.8920   12.0110   20.2840 H   0  0  0  0  0  0  0  0  0  0  0  0
   23.2360    9.3680   24.6650 H   0  0  0  0  0  0  0  0  0  0  0  0
   20.9360    9.5320   23.0270 H   0  0  0  0  0  0  0  0  0  0  0  0
   21.3640   11.7860   24.6250 H   0  0  0  0  0  0  0  0  0  0  0  0
   22.6770   11.4810   25.8030 H   0  0  0  0  0  0  0  0  0  0  0  0
   21.3680   10.1110   26.9800 H   0  0  0  0  0  0  0  0  0  0  0  0
   20.7810    9.3950   25.6170 H   0  0  0  0  0  0  0  0  0  0  0  0
   19.1280   10.4050   27.1380 H   0  0  0  0  0  0  0  0  0  0  0  0
   18.4920    9.6010   24.9610 H   0  0  0  0  0  0  0  0  0  0  0  0
   19.2290   10.9850   24.1560 H   0  0  0  0  0  0  0  0  0  0  0  0
   16.7260   11.0820   25.9020 H   0  0  0  0  0  0  0  0  0  0  0  0
   16.8500   11.3280   24.1540 H   0  0  0  0  0  0  0  0  0  0  0  0
   18.3380   14.1540   26.6870 H   0  0  0  0  0  0  0  0  0  0  0  0
   17.5890   12.6990   27.3540 H   0  0  0  0  0  0  0  0  0  0  0  0
   20.2730   12.9690   25.9380 H   0  0  0  0  0  0  0  0  0  0  0  0
   20.0580   12.5670   27.6360 H   0  0  0  0  0  0  0  0  0  0  0  0
  1  2  1  0  0  0  0
  1 42  1  0  0  0  0
  1 43  1  0  0  0  0
  1 44  1  0  0  0  0
  2  3  1  0  0  0  0
  2 45  1  0  0  0  0
  2 46  1  0  0  0  0
  3  4  2  0  0  0  0
  3 19  1  0  0  0  0
  4  5  1  0  0  0  0
  4 47  1  0  0  0  0
  5  6  1  0  0  0  0
  5 20  1  0  0  0  0
  6  7  1  0  0  0  0
  6 48  1  0  0  0  0
  6 49  1  0  0  0  0
  7  8  1  0  0  0  0
  7 50  1  0  0  0  0
  7 51  1  0  0  0  0
  8  9  2  0  0  0  0
  8 10  2  0  0  0  0
  8 11  1  0  0  0  0
 11 12  1  0  0  0  0
 11 15  1  0  0  0  0
 12 13  1  0  0  0  0
 12 14  1  0  0  0  0
 12 52  1  0  0  0  0
 13 53  1  0  0  0  0
 13 54  1  0  0  0  0
 13 55  1  0  0  0  0
 14 56  1  0  0  0  0
 14 57  1  0  0  0  0
 14 58  1  0  0  0  0
 15 16  1  0  0  0  0
 15 20  2  0  0  0  0
 16 17  2  0  0  0  0
 16 59  1  0  0  0  0
 17 18  1  0  0  0  0
 17 21  1  0  0  0  0
 18 19  2  0  0  0  0
 18 60  1  0  0  0  0
 19 20  1  0  0  0  0
 21 22  2  0  0  0  0
 21 23  1  0  0  0  0
 23 24  1  0  0  0  0
 23 61  1  0  0  0  0
 24 25  1  0  0  0  0
 24 32  1  0  0  0  0
 24 62  1  0  0  0  0
 25 26  1  0  0  0  0
 25 63  1  0  0  0  0
 25 64  1  0  0  0  0
 26 27  1  0  0  0  0
 26 31  2  0  0  0  0
 27 28  2  0  0  0  0
 27 65  1  0  0  0  0
 28 29  1  0  0  0  0
 28 66  1  0  0  0  0
 29 30  2  0  0  0  0
 29 67  1  0  0  0  0
 30 31  1  0  0  0  0
 30 68  1  0  0  0  0
 31 69  1  0  0  0  0
 32 33  1  0  0  0  0
 32 34  1  0  0  0  0
 32 70  1  0  0  0  0
 33 71  1  0  0  0  0
 34 35  1  0  0  0  0
 34 72  1  0  0  0  0
 34 73  1  0  0  0  0
 35 36  1  0  0  0  0
 35 74  1  0  0  0  0
 35 75  1  0  0  0  0
 36 37  1  0  0  0  0
 36 41  1  0  0  0  0
 36 76  1  0  0  0  0
 37 38  1  0  0  0  0
 37 77  1  0  0  0  0
 37 78  1  0  0  0  0
 38 39  1  0  0  0  0
 38 79  1  0  0  0  0
 38 80  1  0  0  0  0
 39 40  1  0  0  0  0
 40 41  1  0  0  0  0
 40 81  1  0  0  0  0
 40 82  1  0  0  0  0
 41 83  1  0  0  0  0
 41 84  1  0  0  0  0
M  CHG  1  35   1
M  END
>  <PARENT_CMPD_ID>
CHEMBL553387

>  <STANDARD_TYPE>
IC50

>  <RELATION>
=

>  <STANDARD_VALUE>
23

>  <STANDARD_UNITS>
nM

>  <COMPOUND_KEY>
36

>  <PUBMED_ID>
19477642

>  <JOURNAL>
Bioorg. Med. Chem. Lett.

>  <YEAR>
2009

>  <VOLUME>
19

>  <FIRST_PAGE>
3669

>  <Company>
GSK

>  <idx>
534

>  <Model>
Valid

>  <target>
7.6382723

>  <des_pred_mlr>
7.0862398

>  <RF_Canvas>
7.8557673

>  <DNN_Canvas>
7.9580326

>  <pred_CoMFA>
7.9468999

>  <pred_COMSIA>
7.9864001

>  <pred_abm5>
7.621316

>  <pred_ff8>
7.7828188

>  <pred_gau6>
7.5176439

>  <CID>
BACE_534

>  <active>
1

>  <des_class_bayes>
1

>  <maacs_class_bayes>
1

>  <radial_class_bayes>
1

>  <dend_class_bayes>
1

>  <molprint_class_bayes>
1

>  <RF_canvas>
1

>  <DNN_canvas>
1

$$$$
CHEMBL1210340
  MOE2015           3D

 76 79  0  0  1  0  0  0  0  0999 V2000
   20.2640   11.1570   26.8570 C   0  0  0  0  0  0  0  0  0  0  0  0
   21.2670   10.3660   26.1000 N   0  3  0  0  0  0  0  0  0  0  0  0
   21.8970   11.1270   25.0050 C   0  0  0  0  0  0  0  0  0  0  0  0
   22.4530   10.1390   23.9780 C   0  0  3  0  0  0  0  0  0  0  0  0
   21.3320    9.3440   23.5740 O   0  0  0  0  0  0  0  0  0  0  0  0
   23.1060   10.8440   22.7960 C   0  0  3  0  0  0  0  0  0  0  0  0
   23.4280    9.8950   21.6440 C   0  0  0  0  0  0  0  0  0  0  0  0
   24.3110   10.5370   20.6000 C   0  0  0  0  0  0  0  0  0  0  0  0
   23.9700   11.7390   19.9960 C   0  0  0  0  0  0  0  0  0  0  0  0
   24.8050   12.3030   19.0450 C   0  0  0  0  0  0  0  0  0  0  0  0
   25.9840   11.6730   18.6870 C   0  0  0  0  0  0  0  0  0  0  0  0
   26.3250   10.4770   19.2830 C   0  0  0  0  0  0  0  0  0  0  0  0
   25.4930    9.9130   20.2330 C   0  0  0  0  0  0  0  0  0  0  0  0
   24.3240   11.5430   23.2230 N   0  0  0  0  0  0  0  0  0  0  0  0
   24.3340   12.9010   23.3860 C   0  0  0  0  0  0  0  0  0  0  0  0
   23.3260   13.6080   23.3880 O   0  0  0  0  0  0  0  0  0  0  0  0
   25.6870   13.4610   23.5640 C   0  0  0  0  0  0  0  0  0  0  0  0
   26.7520   12.9530   22.8410 C   0  0  0  0  0  0  0  0  0  0  0  0
   28.0260   13.4740   23.0230 C   0  0  0  0  0  0  0  0  0  0  0  0
   28.2310   14.5110   23.9240 C   0  0  0  0  0  0  0  0  0  0  0  0
   27.1480   15.0100   24.6360 C   0  0  0  0  0  0  0  0  0  0  0  0
   25.8780   14.4890   24.4640 C   0  0  0  0  0  0  0  0  0  0  0  0
   27.2970   16.0860   25.5750 N   0  0  0  0  0  0  0  0  0  0  0  0
   26.4820   17.2510   25.3990 C   0  0  0  0  0  0  0  0  0  0  0  0
   26.6630   18.0220   24.2710 C   0  0  0  0  0  0  0  0  0  0  0  0
   25.8640   19.1370   24.1070 C   0  0  0  0  0  0  0  0  0  0  0  0
   24.9250   19.4590   25.0620 C   0  0  0  0  0  0  0  0  0  0  0  0
   24.3120   20.3380   24.9290 H   0  0  0  0  0  0  0  0  0  0  0  0
   24.7560   18.6790   26.1830 C   0  0  0  0  0  0  0  0  0  0  0  0
   24.0130   18.9430   26.9210 H   0  0  0  0  0  0  0  0  0  0  0  0
   25.5390   17.5590   26.3600 C   0  0  0  0  0  0  0  0  0  0  0  0
   25.4180   16.9340   27.2330 H   0  0  0  0  0  0  0  0  0  0  0  0
   28.6320   16.2090   26.6040 S   0  0  0  0  0  0  0  0  0  0  0  0
   29.7320   17.2750   25.7120 C   0  0  0  0  0  0  0  0  0  0  0  0
   29.2570   14.9140   26.6820 O   0  0  0  0  0  0  0  0  0  0  0  0
   28.2360   16.9430   27.7840 O   0  0  0  0  0  0  0  0  0  0  0  0
   19.7950   10.5010   27.5910 H   0  0  0  0  0  0  0  0  0  0  0  0
   20.7560   11.9990   27.3440 H   0  0  0  0  0  0  0  0  0  0  0  0
   20.8080    9.5570   25.7070 H   0  0  0  0  0  0  0  0  0  0  0  0
   21.9890   10.0660   26.7400 H   0  0  0  0  0  0  0  0  0  0  0  0
   22.7070   11.7380   25.4020 H   0  0  0  0  0  0  0  0  0  0  0  0
   21.1550   11.7700   24.5310 H   0  0  0  0  0  0  0  0  0  0  0  0
   23.2470    9.5260   24.4060 H   0  0  0  0  0  0  0  0  0  0  0  0
   20.6720    9.9370   23.2080 H   0  0  0  0  0  0  0  0  0  0  0  0
   22.3790   11.5660   22.4250 H   0  0  0  0  0  0  0  0  0  0  0  0
   22.4950    9.5870   21.1720 H   0  0  0  0  0  0  0  0  0  0  0  0
   23.9390    9.0190   22.0440 H   0  0  0  0  0  0  0  0  0  0  0  0
   23.0510   12.2360   20.2680 H   0  0  0  0  0  0  0  0  0  0  0  0
   24.5340   13.2400   18.5800 H   0  0  0  0  0  0  0  0  0  0  0  0
   26.6330   12.1150   17.9460 H   0  0  0  0  0  0  0  0  0  0  0  0
   27.2430    9.9800   19.0070 H   0  0  0  0  0  0  0  0  0  0  0  0
   25.7670    8.9760   20.6940 H   0  0  0  0  0  0  0  0  0  0  0  0
   25.1660   11.0140   23.3990 H   0  0  0  0  0  0  0  0  0  0  0  0
   26.5920   12.1510   22.1350 H   0  0  0  0  0  0  0  0  0  0  0  0
   28.8580   13.0730   22.4640 H   0  0  0  0  0  0  0  0  0  0  0  0
   29.2190   14.9230   24.0690 H   0  0  0  0  0  0  0  0  0  0  0  0
   25.0450   14.8830   25.0280 H   0  0  0  0  0  0  0  0  0  0  0  0
   27.4090   17.7620   23.5350 H   0  0  0  0  0  0  0  0  0  0  0  0
   25.9760   19.7570   23.2290 H   0  0  0  0  0  0  0  0  0  0  0  0
   30.0680   16.7730   24.8040 H   0  0  0  0  0  0  0  0  0  0  0  0
   30.5940   17.5120   26.3360 H   0  0  0  0  0  0  0  0  0  0  0  0
   29.2110   18.1950   25.4470 H   0  0  0  0  0  0  0  0  0  0  0  0
   17.3570   12.6670   24.3100 C   0  0  0  0  0  0  0  0  0  0  0  0
   16.5950   13.0610   23.6420 H   0  0  0  0  0  0  0  0  0  0  0  0
   17.4060   11.2990   24.5790 C   0  0  0  0  0  0  0  0  0  0  0  0
   16.6820   10.6280   24.1210 H   0  0  0  0  0  0  0  0  0  0  0  0
   18.3830   10.7910   25.4350 C   0  0  0  0  0  0  0  0  0  0  0  0
   18.4210    9.7260   25.6450 H   0  0  0  0  0  0  0  0  0  0  0  0
   19.3110   11.6520   26.0220 C   0  0  0  0  0  0  0  0  0  0  0  0
   19.2620   13.0190   25.7530 C   0  0  0  0  0  0  0  0  0  0  0  0
   19.9850   13.6900   26.2100 H   0  0  0  0  0  0  0  0  0  0  0  0
   18.2850   13.5270   24.8960 C   0  0  0  0  0  0  0  0  0  0  0  0
   18.2320   14.9840   24.6090 C   0  0  0  0  0  0  0  0  0  0  0  0
   17.2050   15.2410   23.7560 F   0  0  0  0  0  0  0  0  0  0  0  0
   19.4030   15.3770   24.0400 F   0  0  0  0  0  0  0  0  0  0  0  0
   18.0400   15.6680   25.7690 F   0  0  0  0  0  0  0  0  0  0  0  0
  1  2  1  0  0  0  0
  1 37  1  0  0  0  0
  1 38  1  0  0  0  0
  1 69  1  0  0  0  0
  2  3  1  0  0  0  0
  2 39  1  0  0  0  0
  2 40  1  0  0  0  0
  3  4  1  0  0  0  0
  3 41  1  0  0  0  0
  3 42  1  0  0  0  0
  4  5  1  0  0  0  0
  4  6  1  0  0  0  0
  4 43  1  0  0  0  0
  5 44  1  0  0  0  0
  6  7  1  0  0  0  0
  6 14  1  0  0  0  0
  6 45  1  0  0  0  0
  7  8  1  0  0  0  0
  7 46  1  0  0  0  0
  7 47  1  0  0  0  0
  8  9  1  0  0  0  0
  8 13  2  0  0  0  0
  9 10  2  0  0  0  0
  9 48  1  0  0  0  0
 10 11  1  0  0  0  0
 10 49  1  0  0  0  0
 11 12  2  0  0  0  0
 11 50  1  0  0  0  0
 12 13  1  0  0  0  0
 12 51  1  0  0  0  0
 13 52  1  0  0  0  0
 14 15  1  0  0  0  0
 14 53  1  0  0  0  0
 15 16  2  0  0  0  0
 15 17  1  0  0  0  0
 17 18  1  0  0  0  0
 17 22  2  0  0  0  0
 18 19  2  0  0  0  0
 18 54  1  0  0  0  0
 19 20  1  0  0  0  0
 19 55  1  0  0  0  0
 20 21  2  0  0  0  0
 20 56  1  0  0  0  0
 21 22  1  0  0  0  0
 21 23  1  0  0  0  0
 22 57  1  0  0  0  0
 23 24  1  0  0  0  0
 23 33  1  0  0  0  0
 24 25  1  0  0  0  0
 24 31  2  0  0  0  0
 25 26  2  0  0  0  0
 25 58  1  0  0  0  0
 26 27  1  0  0  0  0
 26 59  1  0  0  0  0
 27 28  1  0  0  0  0
 27 29  2  0  0  0  0
 29 30  1  0  0  0  0
 29 31  1  0  0  0  0
 31 32  1  0  0  0  0
 33 34  1  0  0  0  0
 33 35  2  0  0  0  0
 33 36  2  0  0  0  0
 34 60  1  0  0  0  0
 34 61  1  0  0  0  0
 34 62  1  0  0  0  0
 63 64  1  0  0  0  0
 63 65  1  0  0  0  0
 63 72  2  0  0  0  0
 65 66  1  0  0  0  0
 65 67  2  0  0  0  0
 67 68  1  0  0  0  0
 67 69  1  0  0  0  0
 69 70  2  0  0  0  0
 70 71  1  0  0  0  0
 70 72  1  0  0  0  0
 72 73  1  0  0  0  0
 73 74  1  0  0  0  0
 73 75  1  0  0  0  0
 73 76  1  0  0  0  0
M  CHG  1   2   1
M  END
>  <PARENT_CMPD_ID>
CHEMBL1210340

>  <STANDARD_TYPE>
IC50

>  <RELATION>
=

>  <STANDARD_VALUE>
23

>  <STANDARD_UNITS>
nM

>  <COMPOUND_KEY>
19

>  <PUBMED_ID>
20579874

>  <JOURNAL>
Bioorg. Med. Chem. Lett.

>  <YEAR>
2010

>  <VOLUME>
20

>  <FIRST_PAGE>
4639

>  <Company>
GSK

>  <idx>
535

>  <Model>
Valid

>  <target>
7.6382723

>  <des_pred_mlr>
7.2849102

>  <RF_Canvas>
7.7903318

>  <DNN_Canvas>
7.587522

>  <pred_CoMFA>
6.8256998

>  <pred_COMSIA>
7.7350001

>  <pred_abm5>
7.1514907

>  <pred_ff8>
7.9825416

>  <pred_gau6>
7.2485614

>  <CID>
BACE_535

>  <active>
1

>  <des_class_bayes>
1

>  <maacs_class_bayes>
1

>  <radial_class_bayes>
1

>  <dend_class_bayes>
1

>  <molprint_class_bayes>
1

>  <RF_canvas>
1

>  <DNN_canvas>
1

$$$$
21078556_10b
  MOE2015           3D

 77 80  0  0  1  0  0  0  0  0999 V2000
   24.4520   16.2690   24.9170 C   0  0  0  0  0  0  0  0  0  0  0  0
   23.3880   16.1800   25.1130 H   0  0  0  0  0  0  0  0  0  0  0  0
   23.0450   13.6430   18.5090 H   0  0  0  0  0  0  0  0  0  0  0  0
   26.9870   14.4370   23.2480 N   0  0  0  0  0  0  0  0  0  0  0  0
   25.9290   13.6150   22.9380 C   0  0  0  0  0  0  0  0  0  0  0  0
   26.4260   11.0240   18.8410 H   0  0  0  0  0  0  0  0  0  0  0  0
   24.7840   14.0660   23.5600 C   0  0  0  0  0  0  0  0  0  0  0  0
   25.1380   15.2930   24.1830 C   0  0  0  0  0  0  0  0  0  0  0  0
   27.2330   16.5440   24.4070 N   0  0  0  0  0  0  0  0  0  0  0  0
   26.5010   15.4920   23.9850 C   0  0  0  0  0  0  0  0  0  0  0  0
   29.6220   10.2010   22.8150 C   0  0  0  0  0  0  0  0  0  0  0  0
   26.5180   17.4510   25.0990 C   0  0  0  0  0  0  0  0  0  0  0  0
   25.1660   17.3680   25.3780 C   0  0  0  0  0  0  0  0  0  0  0  0
   24.6720   18.1510   25.9430 H   0  0  0  0  0  0  0  0  0  0  0  0
   28.3310   14.2070   22.9400 C   0  0  0  0  0  0  0  0  0  0  0  0
   28.5850   13.7780   21.6420 N   0  0  0  0  0  0  0  0  0  0  0  0
   27.7420   14.0630   20.4950 C   0  0  0  0  0  0  0  0  0  0  0  0
   29.8330   13.0650   21.3900 C   0  0  0  0  0  0  0  0  0  0  0  0
   29.6500   11.6890   20.7600 C   0  0  0  0  0  0  0  0  0  0  0  0
   28.8650   10.6910   21.6010 C   0  0  0  0  0  0  0  0  0  0  0  0
   29.1440   14.3150   23.8430 O   0  0  0  0  0  0  0  0  0  0  0  0
   23.4900   13.3920   23.5150 C   0  0  0  0  0  0  0  0  0  0  0  0
   23.5850   12.0300   23.3150 N   0  0  0  0  0  0  0  0  0  0  0  0
   22.4580   11.1870   22.9440 C   0  0  3  0  0  0  0  0  0  0  0  0
   21.9400   10.3830   24.1580 C   0  0  3  0  0  0  0  0  0  0  0  0
   21.3600   11.3190   25.2210 C   0  0  0  0  0  0  0  0  0  0  0  0
   20.7050   10.4980   26.2970 N   0  3  0  0  0  0  0  0  0  0  0  0
   19.6030   11.1680   27.0500 C   0  0  0  0  0  0  0  0  0  0  0  0
   18.5060   11.7240   26.1900 C   0  0  0  0  0  0  0  0  0  0  0  0
   22.4140   13.9660   23.6500 O   0  0  0  0  0  0  0  0  0  0  0  0
   22.8590   10.2780   21.7600 C   0  0  0  0  0  0  0  0  0  0  0  0
   23.5290   11.0210   20.6270 C   0  0  0  0  0  0  0  0  0  0  0  0
   24.8020   10.6420   20.1980 C   0  0  0  0  0  0  0  0  0  0  0  0
   25.4390   11.3320   19.1750 C   0  0  0  0  0  0  0  0  0  0  0  0
   24.8080   12.4150   18.5770 C   0  0  0  0  0  0  0  0  0  0  0  0
   23.5400   12.8020   18.9870 C   0  0  0  0  0  0  0  0  0  0  0  0
   22.9010   12.1000   20.0000 C   0  0  0  0  0  0  0  0  0  0  0  0
   20.9220    9.4510   23.7710 O   0  0  0  0  0  0  0  0  0  0  0  0
   17.7280   10.8880   25.3890 C   0  0  0  0  0  0  0  0  0  0  0  0
   16.7750   11.4360   24.5360 C   0  0  0  0  0  0  0  0  0  0  0  0
   15.7990   10.3070   23.3780 Br  0  0  0  0  0  0  0  0  0  0  0  0
   16.5620   12.8050   24.4920 C   0  0  0  0  0  0  0  0  0  0  0  0
   17.3180   13.6380   25.2990 C   0  0  0  0  0  0  0  0  0  0  0  0
   18.2850   13.1020   26.1390 C   0  0  0  0  0  0  0  0  0  0  0  0
   26.0980   12.7320   22.3360 H   0  0  0  0  0  0  0  0  0  0  0  0
   29.0410    9.4350   23.3380 H   0  0  0  0  0  0  0  0  0  0  0  0
   29.8130   11.0140   23.5220 H   0  0  0  0  0  0  0  0  0  0  0  0
   30.5820    9.7590   22.5310 H   0  0  0  0  0  0  0  0  0  0  0  0
   27.0950   18.3050   25.4480 H   0  0  0  0  0  0  0  0  0  0  0  0
   27.0080   14.8430   20.7130 H   0  0  0  0  0  0  0  0  0  0  0  0
   27.2310   13.1490   20.1970 H   0  0  0  0  0  0  0  0  0  0  0  0
   28.3670   14.4140   19.6690 H   0  0  0  0  0  0  0  0  0  0  0  0
   30.4120   12.9700   22.3140 H   0  0  0  0  0  0  0  0  0  0  0  0
   30.4290   13.6950   20.7180 H   0  0  0  0  0  0  0  0  0  0  0  0
   30.6400   11.2730   20.5340 H   0  0  0  0  0  0  0  0  0  0  0  0
   29.1440   11.7970   19.7920 H   0  0  0  0  0  0  0  0  0  0  0  0
   27.9040   11.1130   21.9100 H   0  0  0  0  0  0  0  0  0  0  0  0
   28.6320    9.8220   20.9720 H   0  0  0  0  0  0  0  0  0  0  0  0
   24.4970   11.5930   23.3930 H   0  0  0  0  0  0  0  0  0  0  0  0
   21.6440   11.8360   22.5950 H   0  0  0  0  0  0  0  0  0  0  0  0
   22.7560    9.7970   24.5970 H   0  0  0  0  0  0  0  0  0  0  0  0
   20.5980   11.9570   24.7680 H   0  0  0  0  0  0  0  0  0  0  0  0
   22.1170   11.9380   25.7100 H   0  0  0  0  0  0  0  0  0  0  0  0
   21.4160   10.1400   26.9470 H   0  0  0  0  0  0  0  0  0  0  0  0
   20.3250    9.6650   25.8140 H   0  0  0  0  0  0  0  0  0  0  0  0
   20.0780   11.9490   27.6550 H   0  0  0  0  0  0  0  0  0  0  0  0
   19.1970   10.4180   27.7380 H   0  0  0  0  0  0  0  0  0  0  0  0
   21.9790    9.7610   21.3590 H   0  0  0  0  0  0  0  0  0  0  0  0
   23.5350    9.4950   22.1290 H   0  0  0  0  0  0  0  0  0  0  0  0
   25.3130    9.7980   20.6550 H   0  0  0  0  0  0  0  0  0  0  0  0
   25.3040   12.9550   17.7740 H   0  0  0  0  0  0  0  0  0  0  0  0
   21.9030   12.4120   20.2990 H   0  0  0  0  0  0  0  0  0  0  0  0
   20.3290    9.8660   23.1150 H   0  0  0  0  0  0  0  0  0  0  0  0
   17.8730    9.8110   25.4070 H   0  0  0  0  0  0  0  0  0  0  0  0
   15.8170   13.2340   23.8270 H   0  0  0  0  0  0  0  0  0  0  0  0
   17.1620   14.7130   25.2670 H   0  0  0  0  0  0  0  0  0  0  0  0
   18.8760   13.7840   26.7490 H   0  0  0  0  0  0  0  0  0  0  0  0
  1  2  1  0  0  0  0
  1  8  1  0  0  0  0
  1 13  2  0  0  0  0
  3 36  1  0  0  0  0
  4  5  1  0  0  0  0
  4 10  1  0  0  0  0
  4 15  1  0  0  0  0
  5  7  2  0  0  0  0
  5 45  1  0  0  0  0
  6 34  1  0  0  0  0
  7  8  1  0  0  0  0
  7 22  1  0  0  0  0
  8 10  2  0  0  0  0
  9 10  1  0  0  0  0
  9 12  2  0  0  0  0
 11 20  1  0  0  0  0
 11 46  1  0  0  0  0
 11 47  1  0  0  0  0
 11 48  1  0  0  0  0
 12 13  1  0  0  0  0
 12 49  1  0  0  0  0
 13 14  1  0  0  0  0
 15 16  1  0  0  0  0
 15 21  2  0  0  0  0
 16 17  1  0  0  0  0
 16 18  1  0  0  0  0
 17 50  1  0  0  0  0
 17 51  1  0  0  0  0
 17 52  1  0  0  0  0
 18 19  1  0  0  0  0
 18 53  1  0  0  0  0
 18 54  1  0  0  0  0
 19 20  1  0  0  0  0
 19 55  1  0  0  0  0
 19 56  1  0  0  0  0
 20 57  1  0  0  0  0
 20 58  1  0  0  0  0
 22 23  1  0  0  0  0
 22 30  2  0  0  0  0
 23 24  1  0  0  0  0
 23 59  1  0  0  0  0
 24 25  1  0  0  0  0
 24 31  1  0  0  0  0
 24 60  1  0  0  0  0
 25 26  1  0  0  0  0
 25 38  1  0  0  0  0
 25 61  1  0  0  0  0
 26 27  1  0  0  0  0
 26 62  1  0  0  0  0
 26 63  1  0  0  0  0
 27 28  1  0  0  0  0
 27 64  1  0  0  0  0
 27 65  1  0  0  0  0
 28 29  1  0  0  0  0
 28 66  1  0  0  0  0
 28 67  1  0  0  0  0
 29 39  1  0  0  0  0
 29 44  2  0  0  0  0
 31 32  1  0  0  0  0
 31 68  1  0  0  0  0
 31 69  1  0  0  0  0
 32 33  1  0  0  0  0
 32 37  2  0  0  0  0
 33 34  2  0  0  0  0
 33 70  1  0  0  0  0
 34 35  1  0  0  0  0
 35 36  2  0  0  0  0
 35 71  1  0  0  0  0
 36 37  1  0  0  0  0
 37 72  1  0  0  0  0
 38 73  1  0  0  0  0
 39 40  2  0  0  0  0
 39 74  1  0  0  0  0
 40 41  1  0  0  0  0
 40 42  1  0  0  0  0
 42 43  2  0  0  0  0
 42 75  1  0  0  0  0
 43 44  1  0  0  0  0
 43 76  1  0  0  0  0
 44 77  1  0  0  0  0
M  CHG  1  27   1
M  END
>  <PARENT_CMPD_ID>
21078556_10b

>  <STANDARD_TYPE>
IC50

>  <RELATION>
=

>  <STANDARD_VALUE>
23

>  <STANDARD_UNITS>
nM

>  <COMPOUND_KEY>
10b

>  <PUBMED_ID>
21078556

>  <JOURNAL>
Bioorg.Med.Chem.Lett.

>  <YEAR>
2011

>  <VOLUME>
21

>  <FIRST_PAGE>
537

>  <Company>
BMS

>  <idx>
536

>  <Model>
Valid

>  <target>
7.6382723

>  <des_pred_mlr>
7.1876001

>  <RF_Canvas>
7.1836128

>  <DNN_Canvas>
6.6012778

>  <pred_CoMFA>
7.5640998

>  <pred_COMSIA>
7.8936

>  <pred_abm5>
7.7261715

>  <pred_ff8>
6.6796622

>  <pred_gau6>
7.6086831

>  <CID>
BACE_536

>  <active>
1

>  <des_class_bayes>
1

>  <maacs_class_bayes>
0

>  <radial_class_bayes>
1

>  <dend_class_bayes>
1

>  <molprint_class_bayes>
1

>  <RF_canvas>
1

>  <DNN_canvas>
0

$$$$
CHEMBL1915995
  MOE2015           3D

 86 89  0  0  1  0  0  0  0  0999 V2000
   25.1250   20.4600   25.3770 C   0  0  0  0  0  0  0  0  0  0  0  0
   25.0110   21.5340   25.3990 H   0  0  0  0  0  0  0  0  0  0  0  0
   24.5530   19.6790   26.3820 C   0  0  0  0  0  0  0  0  0  0  0  0
   23.9970   20.1390   27.1860 H   0  0  0  0  0  0  0  0  0  0  0  0
   25.8500   19.8520   24.3350 C   0  0  0  0  0  0  0  0  0  0  0  0
   26.2880   20.4650   23.5610 H   0  0  0  0  0  0  0  0  0  0  0  0
   24.7120   18.2920   26.3300 C   0  0  0  0  0  0  0  0  0  0  0  0
   24.2700   17.6760   27.0990 H   0  0  0  0  0  0  0  0  0  0  0  0
   26.0110   18.4630   24.2890 C   0  0  0  0  0  0  0  0  0  0  0  0
   26.5700   17.9990   23.4900 H   0  0  0  0  0  0  0  0  0  0  0  0
   23.1870   11.8460   20.3250 C   0  0  0  0  0  0  0  0  0  0  0  0
   22.2260   12.1450   20.7180 H   0  0  0  0  0  0  0  0  0  0  0  0
   25.1040   10.4330   20.3920 C   0  0  0  0  0  0  0  0  0  0  0  0
   25.6580    9.6180   20.8340 H   0  0  0  0  0  0  0  0  0  0  0  0
   24.9360   12.1640   18.6930 C   0  0  0  0  0  0  0  0  0  0  0  0
   25.3360   12.6830   17.8350 H   0  0  0  0  0  0  0  0  0  0  0  0
   25.4350   17.6910   25.2960 C   0  0  0  0  0  0  0  0  0  0  0  0
   23.8700   10.7920   20.9260 C   0  0  0  0  0  0  0  0  0  0  0  0
   23.7120   12.5220   19.2320 C   0  0  0  0  0  0  0  0  0  0  0  0
   25.6390   11.1160   19.2860 C   0  0  0  0  0  0  0  0  0  0  0  0
   27.1750   13.4880   23.6660 C   0  0  0  0  0  0  0  0  0  0  0  0
   23.6640   13.1990   23.8080 C   0  0  0  0  0  0  0  0  0  0  0  0
   27.2350   14.1150   21.3400 C   0  0  0  0  0  0  0  0  0  0  0  0
   27.5580   15.1550   21.2900 H   0  0  0  0  0  0  0  0  0  0  0  0
   27.3370   13.6550   20.3570 H   0  0  0  0  0  0  0  0  0  0  0  0
   20.4890   11.9020   25.1990 C   0  0  0  0  0  0  0  0  0  0  0  0
   20.8500   12.9300   25.1550 H   0  0  0  0  0  0  0  0  0  0  0  0
   20.0890   11.6150   24.2260 H   0  0  0  0  0  0  0  0  0  0  0  0
   25.8080   13.9890   21.8800 C   0  0  0  0  0  0  0  0  0  0  0  0
   25.3190   13.1130   21.4530 H   0  0  0  0  0  0  0  0  0  0  0  0
   25.2320   14.8820   21.6350 H   0  0  0  0  0  0  0  0  0  0  0  0
   20.1540   11.0320   27.3770 C   0  0  0  0  0  0  0  0  0  0  0  0
   19.4610   10.5130   28.0390 H   0  0  0  0  0  0  0  0  0  0  0  0
   20.7690   11.7180   27.9600 H   0  0  0  0  0  0  0  0  0  0  0  0
   19.4070   11.7700   26.2720 C   0  0  3  0  0  0  0  0  0  0  0  0
   18.9590   12.7220   26.5570 H   0  0  0  0  0  0  0  0  0  0  0  0
   21.6380   10.9530   25.6010 C   0  0  3  0  0  0  0  0  0  0  0  0
   22.4980   11.5110   25.9720 H   0  0  0  0  0  0  0  0  0  0  0  0
   27.9980   13.3320   22.4170 C   0  0  3  0  0  0  0  0  0  0  0  0
   29.0320   13.6410   22.5690 H   0  0  0  0  0  0  0  0  0  0  0  0
   16.0490    9.3610   24.5570 C   0  0  0  0  0  0  0  0  0  0  0  0
   15.6890    8.8420   23.6690 H   0  0  0  0  0  0  0  0  0  0  0  0
   15.2230    9.5050   25.2530 H   0  0  0  0  0  0  0  0  0  0  0  0
   16.8280    8.7670   25.0350 H   0  0  0  0  0  0  0  0  0  0  0  0
   25.5880   16.1920   25.2840 C   0  0  0  0  0  0  0  0  0  0  0  0
   25.5430   15.8240   26.3090 H   0  0  0  0  0  0  0  0  0  0  0  0
   26.5550   15.9390   24.8500 H   0  0  0  0  0  0  0  0  0  0  0  0
   23.2770   10.0620   22.1220 C   0  0  0  0  0  0  0  0  0  0  0  0
   24.0490    9.4200   22.5450 H   0  0  0  0  0  0  0  0  0  0  0  0
   22.4480    9.4490   21.7690 H   0  0  0  0  0  0  0  0  0  0  0  0
   27.8650   11.8720   21.9640 C   0  0  0  0  0  0  0  0  0  0  0  0
   27.2960   11.8870   21.0340 H   0  0  0  0  0  0  0  0  0  0  0  0
   27.4200   11.3920   22.8360 H   0  0  0  0  0  0  0  0  0  0  0  0
   16.6220   10.7260   24.1550 C   0  0  0  0  0  0  0  0  0  0  0  0
   15.8370   11.3080   23.6720 H   0  0  0  0  0  0  0  0  0  0  0  0
   17.4420   10.5700   23.4540 H   0  0  0  0  0  0  0  0  0  0  0  0
   24.4840   15.5150   24.4650 C   0  0  0  0  0  0  0  0  0  0  0  0
   24.4070   15.9970   23.4900 H   0  0  0  0  0  0  0  0  0  0  0  0
   23.5340   15.6050   24.9910 H   0  0  0  0  0  0  0  0  0  0  0  0
   17.1490   11.5140   25.3650 C   0  0  0  0  0  0  0  0  0  0  0  0
   16.4130   11.4910   26.1690 H   0  0  0  0  0  0  0  0  0  0  0  0
   17.3390   12.5480   25.0770 H   0  0  0  0  0  0  0  0  0  0  0  0
   24.8240   14.0400   24.2780 C   0  0  3  0  0  0  0  0  0  0  0  0
   25.1090   13.7090   25.2770 H   0  0  0  0  0  0  0  0  0  0  0  0
   22.2260   10.1380   24.4290 C   0  0  3  0  0  0  0  0  0  0  0  0
   23.1120    9.6280   24.8060 H   0  0  0  0  0  0  0  0  0  0  0  0
   29.0960   11.0120   21.7030 O   0  0  0  0  0  0  0  0  0  0  0  0
   28.6510    9.5920   21.4610 C   0  0  0  0  0  0  0  0  0  0  0  0
   29.5220    8.9650   21.2730 H   0  0  0  0  0  0  0  0  0  0  0  0
   27.9870    9.5610   20.5960 H   0  0  0  0  0  0  0  0  0  0  0  0
   28.1200    9.2230   22.3390 H   0  0  0  0  0  0  0  0  0  0  0  0
   22.7500   10.9840   23.2440 C   0  0  3  0  0  0  0  0  0  0  0  0
   21.9310   11.5870   22.8520 H   0  0  0  0  0  0  0  0  0  0  0  0
   21.0040   10.0590   26.6180 N   0  3  0  0  0  0  0  0  0  0  0  0
   20.4440    9.3410   26.1810 H   0  0  0  0  0  0  0  0  0  0  0  0
   21.6960    9.6290   27.2150 H   0  0  0  0  0  0  0  0  0  0  0  0
   25.9260   13.8440   23.3410 N   0  0  0  0  0  0  0  0  0  0  0  0
   23.8270   11.8630   23.7040 N   0  0  0  0  0  0  0  0  0  0  0  0
   24.7190   11.4580   23.9510 H   0  0  0  0  0  0  0  0  0  0  0  0
   27.5680   13.2710   24.7900 O   0  0  0  0  0  0  0  0  0  0  0  0
   22.5950   13.7100   23.5250 O   0  0  0  0  0  0  0  0  0  0  0  0
   21.2320    9.2070   23.9900 O   0  0  0  0  0  0  0  0  0  0  0  0
   20.4810    9.7130   23.6710 H   0  0  0  0  0  0  0  0  0  0  0  0
   18.3730   10.8990   25.8080 O   0  0  0  0  0  0  0  0  0  0  0  0
   23.0210   13.5220   18.6820 F   0  0  0  0  0  0  0  0  0  0  0  0
   26.8390   10.7710   18.7780 F   0  0  0  0  0  0  0  0  0  0  0  0
  1  2  1  0  0  0  0
  1  3  2  0  0  0  0
  1  5  1  0  0  0  0
  3  4  1  0  0  0  0
  3  7  1  0  0  0  0
  5  6  1  0  0  0  0
  5  9  2  0  0  0  0
  7  8  1  0  0  0  0
  7 17  2  0  0  0  0
  9 10  1  0  0  0  0
  9 17  1  0  0  0  0
 11 12  1  0  0  0  0
 11 18  2  0  0  0  0
 11 19  1  0  0  0  0
 13 14  1  0  0  0  0
 13 18  1  0  0  0  0
 13 20  2  0  0  0  0
 15 16  1  0  0  0  0
 15 19  2  0  0  0  0
 15 20  1  0  0  0  0
 17 45  1  0  0  0  0
 18 48  1  0  0  0  0
 19 85  1  0  0  0  0
 20 86  1  0  0  0  0
 21 39  1  0  0  0  0
 21 77  1  0  0  0  0
 21 80  2  0  0  0  0
 22 63  1  0  0  0  0
 22 78  1  0  0  0  0
 22 81  2  0  0  0  0
 23 24  1  0  0  0  0
 23 25  1  0  0  0  0
 23 29  1  0  0  0  0
 23 39  1  0  0  0  0
 26 27  1  0  0  0  0
 26 28  1  0  0  0  0
 26 35  1  0  0  0  0
 26 37  1  0  0  0  0
 29 30  1  0  0  0  0
 29 31  1  0  0  0  0
 29 77  1  0  0  0  0
 32 33  1  0  0  0  0
 32 34  1  0  0  0  0
 32 35  1  0  0  0  0
 32 74  1  0  0  0  0
 35 36  1  0  0  0  0
 35 84  1  0  0  0  0
 37 38  1  0  0  0  0
 37 65  1  0  0  0  0
 37 74  1  0  0  0  0
 39 40  1  0  0  0  0
 39 51  1  0  0  0  0
 41 42  1  0  0  0  0
 41 43  1  0  0  0  0
 41 44  1  0  0  0  0
 41 54  1  0  0  0  0
 45 46  1  0  0  0  0
 45 47  1  0  0  0  0
 45 57  1  0  0  0  0
 48 49  1  0  0  0  0
 48 50  1  0  0  0  0
 48 72  1  0  0  0  0
 51 52  1  0  0  0  0
 51 53  1  0  0  0  0
 51 67  1  0  0  0  0
 54 55  1  0  0  0  0
 54 56  1  0  0  0  0
 54 60  1  0  0  0  0
 57 58  1  0  0  0  0
 57 59  1  0  0  0  0
 57 63  1  0  0  0  0
 60 61  1  0  0  0  0
 60 62  1  0  0  0  0
 60 84  1  0  0  0  0
 63 64  1  0  0  0  0
 63 77  1  0  0  0  0
 65 66  1  0  0  0  0
 65 72  1  0  0  0  0
 65 82  1  0  0  0  0
 67 68  1  0  0  0  0
 68 69  1  0  0  0  0
 68 70  1  0  0  0  0
 68 71  1  0  0  0  0
 72 73  1  0  0  0  0
 72 78  1  0  0  0  0
 74 75  1  0  0  0  0
 74 76  1  0  0  0  0
 78 79  1  0  0  0  0
 82 83  1  0  0  0  0
M  CHG  1  74   1
M  END
>  <PARENT_CMPD_ID>
CHEMBL1915995

>  <STANDARD_TYPE>
IC50

>  <RELATION>
=

>  <STANDARD_VALUE>
23

>  <STANDARD_UNITS>
nM

>  <COMPOUND_KEY>
28f

>  <PUBMED_ID>
21782431

>  <JOURNAL>
Bioorg.Med.Chem.Lett.

>  <YEAR>
2011

>  <VOLUME>
21

>  <FIRST_PAGE>
6916

>  <Company>
BMS

>  <idx>
537

>  <Model>
Valid

>  <target>
7.6382723

>  <des_pred_mlr>
6.9382

>  <RF_Canvas>
7.5116611

>  <DNN_Canvas>
7.3919587

>  <pred_CoMFA>
8.3516998

>  <pred_COMSIA>
7.9260001

>  <pred_abm5>
8.6542063

>  <pred_ff8>
7.5772595

>  <pred_gau6>
7.7773294

>  <CID>
BACE_537

>  <active>
1

>  <des_class_bayes>
1

>  <maacs_class_bayes>
1

>  <radial_class_bayes>
1

>  <dend_class_bayes>
1

>  <molprint_class_bayes>
1

>  <RF_canvas>
1

>  <DNN_canvas>
1

$$$$
23537249_42
  MOE2015           3D

 46 49  0  0  1  0  0  0  0  0999 V2000
   25.2640   10.9870   20.0360 C   0  0  0  0  0  0  0  0  0  0  0  0
   24.8560   11.1740   18.7230 C   0  0  0  0  0  0  0  0  0  0  0  0
   23.5090   11.2810   18.4170 C   0  0  0  0  0  0  0  0  0  0  0  0
   22.5340   11.2040   19.4120 C   0  0  0  0  0  0  0  0  0  0  0  0
   22.9120   11.0260   20.7410 C   0  0  0  0  0  0  0  0  0  0  0  0
   24.2810   10.9060   21.0230 C   0  0  0  0  0  0  0  0  0  0  0  0
   20.8640   11.3550   18.8570 S   0  0  0  0  0  0  0  0  0  0  0  0
   19.9790   10.5720   20.2280 C   0  0  0  0  0  0  0  0  0  0  0  0
   20.4550   11.1920   21.5390 C   0  0  0  0  0  0  0  0  0  0  0  0
   21.9320   10.9660   21.9000 C   0  0  3  0  0  0  0  0  0  0  0  0
   26.6740   10.8960   20.3920 C   0  0  0  0  0  0  0  0  0  0  0  0
   18.5010   10.9070   20.0190 C   0  0  0  0  0  0  0  0  0  0  0  0
   20.1530    9.0580   20.1630 C   0  0  0  0  0  0  0  0  0  0  0  0
   22.3010   12.0020   22.9610 C   0  0  0  0  0  0  0  0  0  0  0  0
   22.5790   11.3100   24.0980 N   0  0  0  0  0  0  0  0  0  0  0  0
   22.4150    9.9930   23.8560 C   0  0  0  0  0  0  0  0  0  0  0  0
   22.0470    9.6800   22.6530 N   0  0  0  0  0  0  0  0  0  0  0  0
   22.6280    9.0740   24.8220 N   0  0  0  0  0  0  0  0  0  0  0  0
   22.3520   13.2120   22.8000 O   0  0  0  0  0  0  0  0  0  0  0  0
   22.9860   11.9270   25.3350 C   0  0  0  0  0  0  0  0  0  0  0  0
   27.1390    9.8860   21.2410 C   0  0  0  0  0  0  0  0  0  0  0  0
   26.4510    9.1320   21.6210 H   0  0  0  0  0  0  0  0  0  0  0  0
   28.4830    9.8200   21.6060 C   0  0  0  0  0  0  0  0  0  0  0  0
   29.0190    8.5680   22.6570 Cl  0  0  0  0  0  0  0  0  0  0  0  0
   29.3920   10.7510   21.1310 C   0  0  0  0  0  0  0  0  0  0  0  0
   30.4410   10.7140   21.4040 H   0  0  0  0  0  0  0  0  0  0  0  0
   28.9360   11.7460   20.2850 C   0  0  0  0  0  0  0  0  0  0  0  0
   29.8000   12.6560   19.8170 F   0  0  0  0  0  0  0  0  0  0  0  0
   27.5980   11.8270   19.9150 C   0  0  0  0  0  0  0  0  0  0  0  0
   25.5820   11.2310   17.9150 H   0  0  0  0  0  0  0  0  0  0  0  0
   23.2240   11.4240   17.3760 H   0  0  0  0  0  0  0  0  0  0  0  0
   24.5970   10.7660   22.0560 H   0  0  0  0  0  0  0  0  0  0  0  0
   19.8240   10.8200   22.3610 H   0  0  0  0  0  0  0  0  0  0  0  0
   20.2500   12.2730   21.5070 H   0  0  0  0  0  0  0  0  0  0  0  0
   18.3130   11.9870   20.0360 H   0  0  0  0  0  0  0  0  0  0  0  0
   17.8890   10.4660   20.8160 H   0  0  0  0  0  0  0  0  0  0  0  0
   18.1170   10.5130   19.0700 H   0  0  0  0  0  0  0  0  0  0  0  0
   21.1990    8.7380   20.2120 H   0  0  0  0  0  0  0  0  0  0  0  0
   19.7330    8.6420   19.2390 H   0  0  0  0  0  0  0  0  0  0  0  0
   19.6300    8.5750   20.9960 H   0  0  0  0  0  0  0  0  0  0  0  0
   22.4920    8.0970   24.5940 H   0  0  0  0  0  0  0  0  0  0  0  0
   22.9080    9.3050   25.7640 H   0  0  0  0  0  0  0  0  0  0  0  0
   23.0350   13.0140   25.2400 H   0  0  0  0  0  0  0  0  0  0  0  0
   23.9690   11.5370   25.6170 H   0  0  0  0  0  0  0  0  0  0  0  0
   22.2710   11.6570   26.1170 H   0  0  0  0  0  0  0  0  0  0  0  0
   27.2930   12.6420   19.2630 H   0  0  0  0  0  0  0  0  0  0  0  0
  1  2  1  0  0  0  0
  1  6  2  0  0  0  0
  1 11  1  0  0  0  0
  2  3  2  0  0  0  0
  2 30  1  0  0  0  0
  3  4  1  0  0  0  0
  3 31  1  0  0  0  0
  4  5  2  0  0  0  0
  4  7  1  0  0  0  0
  5  6  1  0  0  0  0
  5 10  1  0  0  0  0
  6 32  1  0  0  0  0
  7  8  1  0  0  0  0
  8  9  1  0  0  0  0
  8 12  1  0  0  0  0
  8 13  1  0  0  0  0
  9 10  1  0  0  0  0
  9 33  1  0  0  0  0
  9 34  1  0  0  0  0
 10 14  1  0  0  0  0
 10 17  1  0  0  0  0
 11 21  1  0  0  0  0
 11 29  2  0  0  0  0
 12 35  1  0  0  0  0
 12 36  1  0  0  0  0
 12 37  1  0  0  0  0
 13 38  1  0  0  0  0
 13 39  1  0  0  0  0
 13 40  1  0  0  0  0
 14 15  1  0  0  0  0
 14 19  2  0  0  0  0
 15 16  1  0  0  0  0
 15 20  1  0  0  0  0
 16 17  2  0  0  0  0
 16 18  1  0  0  0  0
 18 41  1  0  0  0  0
 18 42  1  0  0  0  0
 20 43  1  0  0  0  0
 20 44  1  0  0  0  0
 20 45  1  0  0  0  0
 21 22  1  0  0  0  0
 21 23  2  0  0  0  0
 23 24  1  0  0  0  0
 23 25  1  0  0  0  0
 25 26  1  0  0  0  0
 25 27  2  0  0  0  0
 27 28  1  0  0  0  0
 27 29  1  0  0  0  0
 29 46  1  0  0  0  0
M  END
>  <PARENT_CMPD_ID>
23537249_42

>  <STANDARD_TYPE>
IC50

>  <RELATION>
=

>  <STANDARD_VALUE>
0.023

>  <STANDARD_UNITS>
uM

>  <COMPOUND_KEY>
42

>  <PUBMED_ID>
23537249

>  <JOURNAL>
J.Med.Chem.

>  <YEAR>
2013

>  <VOLUME>
56

>  <FIRST_PAGE>
3379

>  <Company>
Array

>  <idx>
538

>  <Model>
Valid

>  <target>
7.6382723

>  <des_pred_mlr>
6.5120902

>  <RF_Canvas>
7.2287054

>  <DNN_Canvas>
7.8517251

>  <pred_CoMFA>
7.1981001

>  <pred_COMSIA>
6.7849002

>  <pred_abm5>
6.9686637

>  <pred_ff8>
5.9398389

>  <pred_gau6>
7.0930104

>  <CID>
BACE_538

>  <active>
1

>  <des_class_bayes>
0

>  <maacs_class_bayes>
0

>  <radial_class_bayes>
0

>  <dend_class_bayes>
0

>  <molprint_class_bayes>
0

>  <RF_canvas>
1

>  <DNN_canvas>
1

$$$$
23735744_22
  MOE2015           3D

 44 46  0  0  1  0  0  0  0  0999 V2000
   32.2070    8.5730   24.1810 Cl  0  0  0  0  0  0  0  0  0  0  0  0
   31.0480    9.1510   23.0660 C   0  0  0  0  0  0  0  0  0  0  0  0
   29.7580    8.6490   23.0650 C   0  0  0  0  0  0  0  0  0  0  0  0
   28.7910    9.0570   22.2140 N   0  0  0  0  0  0  0  0  0  0  0  0
   31.3780   10.1300   22.1440 C   0  0  0  0  0  0  0  0  0  0  0  0
   30.4160   10.5720   21.2470 C   0  0  0  0  0  0  0  0  0  0  0  0
   29.1480   10.0150   21.3200 C   0  0  0  0  0  0  0  0  0  0  0  0
   28.0620   10.5000   20.4260 C   0  0  0  0  0  0  0  0  0  0  0  0
   28.3260   11.1560   19.4300 O   0  0  0  0  0  0  0  0  0  0  0  0
   26.8080   10.1640   20.8850 N   0  0  0  0  0  0  0  0  0  0  0  0
   25.5690   10.5620   20.3600 C   0  0  0  0  0  0  0  0  0  0  0  0
   25.4090   11.2520   19.1650 C   0  0  0  0  0  0  0  0  0  0  0  0
   24.1450   11.6580   18.7600 C   0  0  0  0  0  0  0  0  0  0  0  0
   23.0440   11.3900   19.5560 C   0  0  0  0  0  0  0  0  0  0  0  0
   21.8530   11.8270   19.1420 F   0  0  0  0  0  0  0  0  0  0  0  0
   24.4380   10.2730   21.1270 C   0  0  0  0  0  0  0  0  0  0  0  0
   23.1560   10.6990   20.7580 C   0  0  0  0  0  0  0  0  0  0  0  0
   21.9460   10.4160   21.6480 C   0  0  3  0  0  0  0  0  0  0  0  0
   20.9620    9.5400   20.8400 C   0  0  0  0  0  0  0  0  0  0  0  0
   21.1870   11.6850   22.0740 C   0  0  0  0  0  0  0  0  0  0  0  0
   20.6470   12.1260   21.2250 H   0  0  0  0  0  0  0  0  0  0  0  0
   20.4020   11.4050   22.7900 H   0  0  0  0  0  0  0  0  0  0  0  0
   22.0440   12.7850   22.6850 C   0  0  0  0  0  0  0  0  0  0  0  0
   22.5430   13.3560   21.8950 H   0  0  0  0  0  0  0  0  0  0  0  0
   21.4110   13.4980   23.2270 H   0  0  0  0  0  0  0  0  0  0  0  0
   23.0540   12.3090   23.5550 O   0  0  0  0  0  0  0  0  0  0  0  0
   22.5570   11.3860   24.4920 C   0  0  0  0  0  0  0  0  0  0  0  0
   21.5470   11.6380   24.8340 H   0  0  0  0  0  0  0  0  0  0  0  0
   23.2080   11.4480   25.3710 H   0  0  0  0  0  0  0  0  0  0  0  0
   22.5870    9.9520   23.9820 C   0  0  0  0  0  0  0  0  0  0  0  0
   22.2920    9.5630   22.7930 N   0  0  0  0  0  0  0  0  0  0  0  0
   22.9870    8.9960   24.8660 N   0  0  0  0  0  0  0  0  0  0  0  0
   29.4550    7.8780   23.7670 H   0  0  0  0  0  0  0  0  0  0  0  0
   32.3790   10.5510   22.1140 H   0  0  0  0  0  0  0  0  0  0  0  0
   30.6500   11.3410   20.5170 H   0  0  0  0  0  0  0  0  0  0  0  0
   26.8080    9.5820   21.7220 H   0  0  0  0  0  0  0  0  0  0  0  0
   26.2540   11.4910   18.5270 H   0  0  0  0  0  0  0  0  0  0  0  0
   24.0140   12.2000   17.8280 H   0  0  0  0  0  0  0  0  0  0  0  0
   24.5710    9.7290   22.0590 H   0  0  0  0  0  0  0  0  0  0  0  0
   20.5510   10.0530   19.9640 H   0  0  0  0  0  0  0  0  0  0  0  0
   20.1110    9.2330   21.4620 H   0  0  0  0  0  0  0  0  0  0  0  0
   21.4460    8.6200   20.4860 H   0  0  0  0  0  0  0  0  0  0  0  0
   23.0110    8.0360   24.5450 H   0  0  0  0  0  0  0  0  0  0  0  0
   23.2670    9.1930   25.8180 H   0  0  0  0  0  0  0  0  0  0  0  0
  1  2  1  0  0  0  0
  2  3  2  0  0  0  0
  2  5  1  0  0  0  0
  3  4  1  0  0  0  0
  3 33  1  0  0  0  0
  4  7  2  0  0  0  0
  5  6  2  0  0  0  0
  5 34  1  0  0  0  0
  6  7  1  0  0  0  0
  6 35  1  0  0  0  0
  7  8  1  0  0  0  0
  8  9  2  0  0  0  0
  8 10  1  0  0  0  0
 10 11  1  0  0  0  0
 10 36  1  0  0  0  0
 11 12  1  0  0  0  0
 11 16  2  0  0  0  0
 12 13  2  0  0  0  0
 12 37  1  0  0  0  0
 13 14  1  0  0  0  0
 13 38  1  0  0  0  0
 14 15  1  0  0  0  0
 14 17  2  0  0  0  0
 16 17  1  0  0  0  0
 16 39  1  0  0  0  0
 17 18  1  0  0  0  0
 18 19  1  0  0  0  0
 18 20  1  0  0  0  0
 18 31  1  0  0  0  0
 19 40  1  0  0  0  0
 19 41  1  0  0  0  0
 19 42  1  0  0  0  0
 20 21  1  0  0  0  0
 20 22  1  0  0  0  0
 20 23  1  0  0  0  0
 23 24  1  0  0  0  0
 23 25  1  0  0  0  0
 23 26  1  0  0  0  0
 26 27  1  0  0  0  0
 27 28  1  0  0  0  0
 27 29  1  0  0  0  0
 27 30  1  0  0  0  0
 30 31  2  0  0  0  0
 30 32  1  0  0  0  0
 32 43  1  0  0  0  0
 32 44  1  0  0  0  0
M  END
>  <PARENT_CMPD_ID>
23735744_22

>  <STANDARD_TYPE>
IC50

>  <RELATION>
=

>  <STANDARD_VALUE>
0.023

>  <STANDARD_UNITS>
uM

>  <COMPOUND_KEY>
22

>  <PUBMED_ID>
23735744

>  <JOURNAL>
Bioorg.Med.Chem.Lett.

>  <YEAR>
2013

>  <VOLUME>
23

>  <FIRST_PAGE>
4239

>  <Company>
Roche

>  <idx>
539

>  <Model>
Valid

>  <target>
7.6382723

>  <des_pred_mlr>
6.1496701

>  <RF_Canvas>
6.6176414

>  <DNN_Canvas>
6.6080747

>  <pred_CoMFA>
7.1392002

>  <pred_COMSIA>
6.6264

>  <pred_abm5>
7.0595789

>  <pred_ff8>
6.8882198

>  <pred_gau6>
7.3855376

>  <CID>
BACE_539

>  <active>
1

>  <des_class_bayes>
0

>  <maacs_class_bayes>
0

>  <radial_class_bayes>
0

>  <dend_class_bayes>
1

>  <molprint_class_bayes>
1

>  <RF_canvas>
0

>  <DNN_canvas>
0

$$$$
22325942_17
  MOE2015           3D

 52 56  0  0  1  0  0  0  0  0999 V2000
   28.8680    8.7360   22.3570 N   0  0  0  0  0  0  0  0  0  0  0  0
   29.8440    9.6380   22.2240 C   0  0  0  0  0  0  0  0  0  0  0  0
   30.7840    9.4240   22.7190 H   0  0  0  0  0  0  0  0  0  0  0  0
   29.7730   10.7820   21.5270 N   0  0  0  0  0  0  0  0  0  0  0  0
   28.5950   11.0350   20.9130 C   0  0  0  0  0  0  0  0  0  0  0  0
   28.5620   11.9800   20.3770 H   0  0  0  0  0  0  0  0  0  0  0  0
   27.4940   10.2030   20.9710 C   0  0  0  0  0  0  0  0  0  0  0  0
   27.7140    9.0550   21.7230 C   0  0  0  0  0  0  0  0  0  0  0  0
   26.9290    8.3120   21.8460 H   0  0  0  0  0  0  0  0  0  0  0  0
   26.1970   10.5220   20.3690 C   0  0  0  0  0  0  0  0  0  0  0  0
   26.0490   10.9560   19.0560 C   0  0  0  0  0  0  0  0  0  0  0  0
   26.9180   11.0740   18.4120 H   0  0  0  0  0  0  0  0  0  0  0  0
   24.7860   11.2260   18.5250 C   0  0  0  0  0  0  0  0  0  0  0  0
   24.6970   11.5590   17.4940 H   0  0  0  0  0  0  0  0  0  0  0  0
   23.6390   11.0820   19.3000 C   0  0  0  0  0  0  0  0  0  0  0  0
   22.6780   11.3180   18.8500 H   0  0  0  0  0  0  0  0  0  0  0  0
   23.7380   10.6610   20.6230 C   0  0  0  0  0  0  0  0  0  0  0  0
   25.0260   10.3950   21.1250 C   0  0  0  0  0  0  0  0  0  0  0  0
   25.1200   10.0850   22.1670 H   0  0  0  0  0  0  0  0  0  0  0  0
   22.5410   10.5360   21.5720 C   0  0  3  0  0  0  0  0  0  0  0  0
   22.5670   11.6910   22.6090 C   0  0  0  0  0  0  0  0  0  0  0  0
   22.5160   12.9420   22.3110 N   0  0  0  0  0  0  0  0  0  0  0  0
   22.6010   13.8510   23.4660 C   0  0  0  0  0  0  0  0  0  0  0  0
   22.0120   14.7460   23.2360 H   0  0  0  0  0  0  0  0  0  0  0  0
   23.6400   14.1800   23.5850 H   0  0  0  0  0  0  0  0  0  0  0  0
   22.0860   13.2490   24.7640 C   0  0  0  0  0  0  0  0  0  0  0  0
   22.6880   11.8880   25.0380 C   0  0  0  0  0  0  0  0  0  0  0  0
   22.1210   11.4010   25.8380 H   0  0  0  0  0  0  0  0  0  0  0  0
   23.7220   11.9950   25.3850 H   0  0  0  0  0  0  0  0  0  0  0  0
   22.6610   11.0970   23.8360 N   0  0  0  0  0  0  0  0  0  0  0  0
   22.7410    9.7500   23.7020 C   0  0  0  0  0  0  0  0  0  0  0  0
   22.7110    9.3070   22.4730 N   0  0  0  0  0  0  0  0  0  0  0  0
   22.8770    8.9410   24.7640 N   0  0  0  0  0  0  0  0  0  0  0  0
   22.9670    7.9450   24.6060 H   0  0  0  0  0  0  0  0  0  0  0  0
   22.8920    9.2640   25.7190 H   0  0  0  0  0  0  0  0  0  0  0  0
   22.3490   14.0840   25.7900 F   0  0  0  0  0  0  0  0  0  0  0  0
   20.7400   13.1300   24.7040 F   0  0  0  0  0  0  0  0  0  0  0  0
   21.1770   10.4130   20.8990 C   0  0  0  0  0  0  0  0  0  0  0  0
   20.6920    9.1410   20.5750 C   0  0  0  0  0  0  0  0  0  0  0  0
   21.2910    8.2540   20.7750 H   0  0  0  0  0  0  0  0  0  0  0  0
   19.4360    8.9790   20.0230 C   0  0  0  0  0  0  0  0  0  0  0  0
   19.0600    7.9840   19.8040 H   0  0  0  0  0  0  0  0  0  0  0  0
   18.6660   10.0960   19.7490 C   0  0  0  0  0  0  0  0  0  0  0  0
   17.4300    9.8800   19.2300 O   0  0  0  0  0  0  0  0  0  0  0  0
   17.2750   10.4830   17.9510 C   0  0  0  0  0  0  0  0  0  0  0  0
   16.2390    9.8630   17.3310 F   0  0  0  0  0  0  0  0  0  0  0  0
   18.1650   10.4140   17.3130 H   0  0  0  0  0  0  0  0  0  0  0  0
   16.9080   11.7780   18.1200 F   0  0  0  0  0  0  0  0  0  0  0  0
   19.1240   11.3700   20.0510 C   0  0  0  0  0  0  0  0  0  0  0  0
   18.5070   12.2450   19.8690 H   0  0  0  0  0  0  0  0  0  0  0  0
   20.3800   11.5240   20.6110 C   0  0  0  0  0  0  0  0  0  0  0  0
   20.7180   12.5350   20.8180 H   0  0  0  0  0  0  0  0  0  0  0  0
  1  2  1  0  0  0  0
  1  8  2  0  0  0  0
  2  3  1  0  0  0  0
  2  4  2  0  0  0  0
  4  5  1  0  0  0  0
  5  6  1  0  0  0  0
  5  7  2  0  0  0  0
  7  8  1  0  0  0  0
  7 10  1  0  0  0  0
  8  9  1  0  0  0  0
 10 11  1  0  0  0  0
 10 18  2  0  0  0  0
 11 12  1  0  0  0  0
 11 13  2  0  0  0  0
 13 14  1  0  0  0  0
 13 15  1  0  0  0  0
 15 16  1  0  0  0  0
 15 17  2  0  0  0  0
 17 18  1  0  0  0  0
 17 20  1  0  0  0  0
 18 19  1  0  0  0  0
 20 21  1  0  0  0  0
 20 32  1  0  0  0  0
 20 38  1  0  0  0  0
 21 22  2  0  0  0  0
 21 30  1  0  0  0  0
 22 23  1  0  0  0  0
 23 24  1  0  0  0  0
 23 25  1  0  0  0  0
 23 26  1  0  0  0  0
 26 27  1  0  0  0  0
 26 36  1  0  0  0  0
 26 37  1  0  0  0  0
 27 28  1  0  0  0  0
 27 29  1  0  0  0  0
 27 30  1  0  0  0  0
 30 31  1  0  0  0  0
 31 32  2  0  0  0  0
 31 33  1  0  0  0  0
 33 34  1  0  0  0  0
 33 35  1  0  0  0  0
 38 39  1  0  0  0  0
 38 51  2  0  0  0  0
 39 40  1  0  0  0  0
 39 41  2  0  0  0  0
 41 42  1  0  0  0  0
 41 43  1  0  0  0  0
 43 44  1  0  0  0  0
 43 49  2  0  0  0  0
 44 45  1  0  0  0  0
 45 46  1  0  0  0  0
 45 47  1  0  0  0  0
 45 48  1  0  0  0  0
 49 50  1  0  0  0  0
 49 51  1  0  0  0  0
 51 52  1  0  0  0  0
M  END
>  <PARENT_CMPD_ID>
22325942_17

>  <STANDARD_TYPE>
IC50

>  <RELATION>
=

>  <COMPOUND_KEY>
17

>  <PUBMED_ID>
22325942

>  <JOURNAL>
Bioorg. Med. Chem. Lett.

>  <YEAR>
2012

>  <VOLUME>
22

>  <FIRST_PAGE>
1854

>  <Company>
AstraZeneca

>  <idx>
540

>  <Model>
Valid

>  <target>
7.6300001

>  <des_pred_mlr>
7.6979899

>  <RF_Canvas>
7.4211154

>  <DNN_Canvas>
7.1717014

>  <pred_CoMFA>
6.8850999

>  <pred_COMSIA>
7.1847

>  <pred_abm5>
7.0987525

>  <pred_ff8>
5.6017714

>  <pred_gau6>
7.4277253

>  <CID>
BACE_540

>  <active>
1

>  <des_class_bayes>
1

>  <maacs_class_bayes>
1

>  <radial_class_bayes>
0

>  <dend_class_bayes>
1

>  <molprint_class_bayes>
1

>  <RF_canvas>
1

>  <DNN_canvas>
1

$$$$
CHEMBL570745
  MOE2015           3D

 74 76  0  0  1  0  0  0  0  0999 V2000
   24.2510   12.9760   23.0030 C   0  0  0  0  0  0  0  0  0  0  0  0
   22.4390   10.1240   23.9260 C   0  0  3  0  0  0  0  0  0  0  0  0
   23.5350    9.7940   21.6110 C   0  0  0  0  0  0  0  0  0  0  0  0
   25.5520   10.1770   20.1430 C   0  0  0  0  0  0  0  0  0  0  0  0
   24.2700   12.1840   18.7510 C   0  0  0  0  0  0  0  0  0  0  0  0
   22.1070   11.1990   24.9600 C   0  0  0  0  0  0  0  0  0  0  0  0
   20.5060   11.7070   26.8810 C   0  0  0  0  0  0  0  0  0  0  0  0
   21.5810   12.7070   27.3960 C   0  0  0  0  0  0  0  0  0  0  0  0
   21.1130   13.6990   28.4450 C   0  0  0  0  0  0  0  0  0  0  0  0
   19.3750   12.2870   26.0230 C   0  0  0  0  0  0  0  0  0  0  0  0
   17.2360   13.2800   24.4970 C   0  0  0  0  0  0  0  0  0  0  0  0
   18.3550   11.4480   25.5380 C   0  0  0  0  0  0  0  0  0  0  0  0
   23.6440   13.1610   18.0950 F   0  0  0  0  0  0  0  0  0  0  0  0
   23.5910   11.4920   19.7400 C   0  0  0  0  0  0  0  0  0  0  0  0
   25.5790   11.8850   18.4410 C   0  0  0  0  0  0  0  0  0  0  0  0
   26.2060   10.8760   19.1400 C   0  0  0  0  0  0  0  0  0  0  0  0
   27.4730   10.5730   18.8520 F   0  0  0  0  0  0  0  0  0  0  0  0
   24.2320   10.4870   20.4650 C   0  0  0  0  0  0  0  0  0  0  0  0
   23.1130   10.7910   22.7070 C   0  0  3  0  0  0  0  0  0  0  0  0
   24.2590   11.6030   23.1100 N   0  0  0  0  0  0  0  0  0  0  0  0
   23.2710   13.6250   22.6530 O   0  0  0  0  0  0  0  0  0  0  0  0
   25.5540   13.6320   23.3560 C   0  0  0  0  0  0  0  0  0  0  0  0
   21.2240    9.4590   23.5680 O   0  0  0  0  0  0  0  0  0  0  0  0
   21.2780   10.6420   26.0800 N   0  3  0  0  0  0  0  0  0  0  0  0
   20.3300   13.0720   29.5770 C   0  0  0  0  0  0  0  0  0  0  0  0
   19.3110   12.0330   29.1040 C   0  0  0  0  0  0  0  0  0  0  0  0
   19.9200   11.0170   28.1370 C   0  0  0  0  0  0  0  0  0  0  0  0
   19.3050   13.6320   25.6720 C   0  0  0  0  0  0  0  0  0  0  0  0
   17.2750   11.9170   24.7720 C   0  0  0  0  0  0  0  0  0  0  0  0
   18.2390   14.1260   24.9380 C   0  0  0  0  0  0  0  0  0  0  0  0
   16.2160   10.9510   24.2410 C   0  0  0  0  0  0  0  0  0  0  0  0
   15.7030   10.0320   25.3570 C   0  0  0  0  0  0  0  0  0  0  0  0
   14.9860   11.6510   23.6450 C   0  0  0  0  0  0  0  0  0  0  0  0
   16.8440   10.0970   23.1350 C   0  0  0  0  0  0  0  0  0  0  0  0
   23.1050    9.3770   24.3730 H   0  0  0  0  0  0  0  0  0  0  0  0
   24.1990    9.0350   22.0450 H   0  0  0  0  0  0  0  0  0  0  0  0
   22.6610    9.2590   21.2210 H   0  0  0  0  0  0  0  0  0  0  0  0
   26.0950    9.3990   20.6740 H   0  0  0  0  0  0  0  0  0  0  0  0
   21.5230   11.9940   24.4880 H   0  0  0  0  0  0  0  0  0  0  0  0
   23.0140   11.6130   25.4090 H   0  0  0  0  0  0  0  0  0  0  0  0
   22.0200   13.2820   26.5710 H   0  0  0  0  0  0  0  0  0  0  0  0
   22.4120   12.1380   27.8380 H   0  0  0  0  0  0  0  0  0  0  0  0
   20.5160   14.4950   27.9890 H   0  0  0  0  0  0  0  0  0  0  0  0
   21.9830   14.2260   28.8590 H   0  0  0  0  0  0  0  0  0  0  0  0
   16.4360   13.7240   23.9100 H   0  0  0  0  0  0  0  0  0  0  0  0
   18.3970   10.3840   25.7600 H   0  0  0  0  0  0  0  0  0  0  0  0
   22.5620   11.7720   19.9490 H   0  0  0  0  0  0  0  0  0  0  0  0
   26.1020   12.4300   17.6640 H   0  0  0  0  0  0  0  0  0  0  0  0
   22.3620   11.4540   22.2590 H   0  0  0  0  0  0  0  0  0  0  0  0
   25.0980   11.1390   23.4470 H   0  0  0  0  0  0  0  0  0  0  0  0
   26.2870   12.9130   23.7330 H   0  0  0  0  0  0  0  0  0  0  0  0
   25.3770   14.3850   24.1280 H   0  0  0  0  0  0  0  0  0  0  0  0
   25.9620   14.1120   22.4620 H   0  0  0  0  0  0  0  0  0  0  0  0
   20.7380    9.9960   22.9130 H   0  0  0  0  0  0  0  0  0  0  0  0
   21.8680   10.0760   26.7030 H   0  0  0  0  0  0  0  0  0  0  0  0
   20.6230    9.9750   25.6390 H   0  0  0  0  0  0  0  0  0  0  0  0
   19.6880   14.1330   30.2670 O   0  0  0  0  0  0  0  0  0  0  0  0
   18.9770   14.4900   29.7080 H   0  0  0  0  0  0  0  0  0  0  0  0
   18.4480   12.5320   28.6450 H   0  0  0  0  0  0  0  0  0  0  0  0
   18.9040   11.5110   29.9790 H   0  0  0  0  0  0  0  0  0  0  0  0
   21.0260   12.5940   30.2760 H   0  0  0  0  0  0  0  0  0  0  0  0
   20.7120   10.4690   28.6660 H   0  0  0  0  0  0  0  0  0  0  0  0
   19.1640   10.2670   27.8790 H   0  0  0  0  0  0  0  0  0  0  0  0
   20.0790   14.3440   25.9380 H   0  0  0  0  0  0  0  0  0  0  0  0
   18.2000   15.1830   24.6860 H   0  0  0  0  0  0  0  0  0  0  0  0
   15.3160   10.6120   26.2030 H   0  0  0  0  0  0  0  0  0  0  0  0
   16.4770    9.3610   25.7450 H   0  0  0  0  0  0  0  0  0  0  0  0
   14.8900    9.3870   25.0000 H   0  0  0  0  0  0  0  0  0  0  0  0
   14.5030   12.3110   24.3750 H   0  0  0  0  0  0  0  0  0  0  0  0
   14.2330   10.9240   23.3200 H   0  0  0  0  0  0  0  0  0  0  0  0
   15.2400   12.2490   22.7610 H   0  0  0  0  0  0  0  0  0  0  0  0
   17.6880    9.5020   23.5030 H   0  0  0  0  0  0  0  0  0  0  0  0
   17.2210   10.7190   22.3140 H   0  0  0  0  0  0  0  0  0  0  0  0
   16.1160    9.3950   22.7100 H   0  0  0  0  0  0  0  0  0  0  0  0
  1 20  1  0  0  0  0
  1 21  2  0  0  0  0
  1 22  1  0  0  0  0
  2  6  1  0  0  0  0
  2 19  1  0  0  0  0
  2 23  1  0  0  0  0
  2 35  1  0  0  0  0
  3 18  1  0  0  0  0
  3 19  1  0  0  0  0
  3 36  1  0  0  0  0
  3 37  1  0  0  0  0
  4 16  2  0  0  0  0
  4 18  1  0  0  0  0
  4 38  1  0  0  0  0
  5 13  1  0  0  0  0
  5 14  1  0  0  0  0
  5 15  2  0  0  0  0
  6 24  1  0  0  0  0
  6 39  1  0  0  0  0
  6 40  1  0  0  0  0
  7  8  1  0  0  0  0
  7 10  1  0  0  0  0
  7 24  1  0  0  0  0
  7 27  1  0  0  0  0
  8  9  1  0  0  0  0
  8 41  1  0  0  0  0
  8 42  1  0  0  0  0
  9 25  1  0  0  0  0
  9 43  1  0  0  0  0
  9 44  1  0  0  0  0
 10 12  2  0  0  0  0
 10 28  1  0  0  0  0
 11 29  2  0  0  0  0
 11 30  1  0  0  0  0
 11 45  1  0  0  0  0
 12 29  1  0  0  0  0
 12 46  1  0  0  0  0
 14 18  2  0  0  0  0
 14 47  1  0  0  0  0
 15 16  1  0  0  0  0
 15 48  1  0  0  0  0
 16 17  1  0  0  0  0
 19 20  1  0  0  0  0
 19 49  1  0  0  0  0
 20 50  1  0  0  0  0
 22 51  1  0  0  0  0
 22 52  1  0  0  0  0
 22 53  1  0  0  0  0
 23 54  1  0  0  0  0
 24 55  1  0  0  0  0
 24 56  1  0  0  0  0
 25 26  1  0  0  0  0
 25 57  1  0  0  0  0
 25 61  1  0  0  0  0
 26 27  1  0  0  0  0
 26 59  1  0  0  0  0
 26 60  1  0  0  0  0
 27 62  1  0  0  0  0
 27 63  1  0  0  0  0
 28 30  2  0  0  0  0
 28 64  1  0  0  0  0
 29 31  1  0  0  0  0
 30 65  1  0  0  0  0
 31 32  1  0  0  0  0
 31 33  1  0  0  0  0
 31 34  1  0  0  0  0
 32 66  1  0  0  0  0
 32 67  1  0  0  0  0
 32 68  1  0  0  0  0
 33 69  1  0  0  0  0
 33 70  1  0  0  0  0
 33 71  1  0  0  0  0
 34 72  1  0  0  0  0
 34 73  1  0  0  0  0
 34 74  1  0  0  0  0
 57 58  1  0  0  0  0
M  CHG  1  24   1
M  END
>  <PARENT_CMPD_ID>
CHEMBL570745

>  <STANDARD_TYPE>
IC50

>  <RELATION>
=

>  <STANDARD_VALUE>
24

>  <STANDARD_UNITS>
nM

>  <COMPOUND_KEY>
33

>  <PUBMED_ID>
19811916

>  <JOURNAL>
Bioorg. Med. Chem. Lett.

>  <YEAR>
2009

>  <VOLUME>
19

>  <FIRST_PAGE>
6386

>  <Company>
Elan

>  <idx>
541

>  <Model>
Valid

>  <target>
7.6197886

>  <des_pred_mlr>
6.8106399

>  <RF_Canvas>
7.4125767

>  <DNN_Canvas>
7.4109998

>  <pred_CoMFA>
7.6416001

>  <pred_COMSIA>
7.9084001

>  <pred_abm5>
7.6121063

>  <pred_ff8>
6.8358855

>  <pred_gau6>
7.5677752

>  <CID>
BACE_541

>  <active>
1

>  <des_class_bayes>
1

>  <maacs_class_bayes>
1

>  <radial_class_bayes>
1

>  <dend_class_bayes>
1

>  <molprint_class_bayes>
1

>  <RF_canvas>
1

>  <DNN_canvas>
1

$$$$
CHEMBL569608
  MOE2015           3D

 77 79  0  0  1  0  0  0  0  0999 V2000
   24.2560   12.9960   22.9900 C   0  0  0  0  0  0  0  0  0  0  0  0
   22.4500   10.1530   23.9130 C   0  0  3  0  0  0  0  0  0  0  0  0
   23.5430    9.8090   21.6060 C   0  0  0  0  0  0  0  0  0  0  0  0
   25.5590   10.1840   20.1370 C   0  0  0  0  0  0  0  0  0  0  0  0
   24.2780   12.1880   18.7400 C   0  0  0  0  0  0  0  0  0  0  0  0
   22.0950   11.2270   24.9450 C   0  0  0  0  0  0  0  0  0  0  0  0
   20.4420   11.5930   26.8690 C   0  0  0  0  0  0  0  0  0  0  0  0
   21.4330   12.5980   27.5190 C   0  0  0  0  0  0  0  0  0  0  0  0
   20.8240   13.4580   28.6260 C   0  0  0  0  0  0  0  0  0  0  0  0
   19.3330   12.2120   26.0110 C   0  0  0  0  0  0  0  0  0  0  0  0
   17.2170   13.2720   24.5000 C   0  0  0  0  0  0  0  0  0  0  0  0
   18.3180   11.3980   25.4800 C   0  0  0  0  0  0  0  0  0  0  0  0
   23.6530   13.1650   18.0820 F   0  0  0  0  0  0  0  0  0  0  0  0
   23.5980   11.4990   19.7290 C   0  0  0  0  0  0  0  0  0  0  0  0
   25.5870   11.8890   18.4310 C   0  0  0  0  0  0  0  0  0  0  0  0
   26.2140   10.8800   19.1320 C   0  0  0  0  0  0  0  0  0  0  0  0
   27.4800   10.5760   18.8460 F   0  0  0  0  0  0  0  0  0  0  0  0
   24.2390   10.4960   20.4560 C   0  0  0  0  0  0  0  0  0  0  0  0
   23.1210   10.8130   22.6940 C   0  0  3  0  0  0  0  0  0  0  0  0
   24.2670   11.6230   23.0980 N   0  0  0  0  0  0  0  0  0  0  0  0
   23.2740   13.6450   22.6500 O   0  0  0  0  0  0  0  0  0  0  0  0
   25.5580   13.6390   23.3650 C   0  0  0  0  0  0  0  0  0  0  0  0
   21.2370    9.4740   23.5610 O   0  0  0  0  0  0  0  0  0  0  0  0
   21.2750   10.6170   26.0390 N   0  3  0  0  0  0  0  0  0  0  0  0
   20.0920   12.6160   29.6640 C   0  0  0  0  0  0  0  0  0  0  0  0
   19.1220   11.6160   29.0460 C   0  0  0  0  0  0  0  0  0  0  0  0
   19.8390   10.7500   28.0180 C   0  0  0  0  0  0  0  0  0  0  0  0
   19.2760   13.5700   25.7060 C   0  0  0  0  0  0  0  0  0  0  0  0
   17.2430   11.9010   24.7330 C   0  0  0  0  0  0  0  0  0  0  0  0
   18.2240   14.0960   24.9750 C   0  0  0  0  0  0  0  0  0  0  0  0
   16.1750   10.9570   24.1880 C   0  0  0  0  0  0  0  0  0  0  0  0
   15.6460   10.0380   25.2980 C   0  0  0  0  0  0  0  0  0  0  0  0
   14.9580   11.6810   23.5940 C   0  0  0  0  0  0  0  0  0  0  0  0
   16.7950   10.1000   23.0790 C   0  0  0  0  0  0  0  0  0  0  0  0
   23.1190    9.4140   24.3680 H   0  0  0  0  0  0  0  0  0  0  0  0
   24.2060    9.0530   22.0440 H   0  0  0  0  0  0  0  0  0  0  0  0
   22.6680    9.2710   21.2190 H   0  0  0  0  0  0  0  0  0  0  0  0
   26.1010    9.4070   20.6700 H   0  0  0  0  0  0  0  0  0  0  0  0
   21.4900   12.0090   24.4780 H   0  0  0  0  0  0  0  0  0  0  0  0
   22.9830   11.6640   25.4110 H   0  0  0  0  0  0  0  0  0  0  0  0
   21.8870   13.2590   26.7710 H   0  0  0  0  0  0  0  0  0  0  0  0
   22.2690   12.0380   27.9620 H   0  0  0  0  0  0  0  0  0  0  0  0
   20.1540   14.2040   28.1920 H   0  0  0  0  0  0  0  0  0  0  0  0
   21.6310   14.0250   29.1070 H   0  0  0  0  0  0  0  0  0  0  0  0
   16.4220   13.7410   23.9260 H   0  0  0  0  0  0  0  0  0  0  0  0
   18.3560   10.3250   25.6530 H   0  0  0  0  0  0  0  0  0  0  0  0
   22.5690   11.7790   19.9370 H   0  0  0  0  0  0  0  0  0  0  0  0
   26.1110   12.4320   17.6540 H   0  0  0  0  0  0  0  0  0  0  0  0
   22.3710   11.4760   22.2430 H   0  0  0  0  0  0  0  0  0  0  0  0
   25.1080   11.1630   23.4340 H   0  0  0  0  0  0  0  0  0  0  0  0
   26.4010   13.0450   23.0000 H   0  0  0  0  0  0  0  0  0  0  0  0
   25.6190   13.7240   24.4530 H   0  0  0  0  0  0  0  0  0  0  0  0
   25.6170   14.6350   22.9180 H   0  0  0  0  0  0  0  0  0  0  0  0
   20.7660    9.9830   22.8730 H   0  0  0  0  0  0  0  0  0  0  0  0
   21.8800   10.0500   26.6460 H   0  0  0  0  0  0  0  0  0  0  0  0
   20.6560    9.9390   25.5630 H   0  0  0  0  0  0  0  0  0  0  0  0
   19.3080   13.6560   30.9510 S   0  0  0  0  0  0  0  0  0  0  0  0
   17.9510   14.4290   30.0330 C   0  0  0  0  0  0  0  0  0  0  0  0
   17.1970   13.6890   29.7560 H   0  0  0  0  0  0  0  0  0  0  0  0
   17.4700   15.1650   30.6820 H   0  0  0  0  0  0  0  0  0  0  0  0
   18.3100   14.9500   29.1440 H   0  0  0  0  0  0  0  0  0  0  0  0
   18.2740   12.1160   28.5690 H   0  0  0  0  0  0  0  0  0  0  0  0
   18.7080   10.9650   29.8260 H   0  0  0  0  0  0  0  0  0  0  0  0
   20.8530   12.0400   30.2060 H   0  0  0  0  0  0  0  0  0  0  0  0
   20.6370   10.1940   28.5320 H   0  0  0  0  0  0  0  0  0  0  0  0
   19.1470    9.9830   27.6520 H   0  0  0  0  0  0  0  0  0  0  0  0
   20.0470   14.2690   26.0170 H   0  0  0  0  0  0  0  0  0  0  0  0
   18.1940   15.1620   24.7590 H   0  0  0  0  0  0  0  0  0  0  0  0
   15.2630   10.6190   26.1450 H   0  0  0  0  0  0  0  0  0  0  0  0
   16.4090    9.3540   25.6850 H   0  0  0  0  0  0  0  0  0  0  0  0
   14.8250    9.4070   24.9340 H   0  0  0  0  0  0  0  0  0  0  0  0
   14.4780   12.3370   24.3310 H   0  0  0  0  0  0  0  0  0  0  0  0
   14.1980   10.9670   23.2540 H   0  0  0  0  0  0  0  0  0  0  0  0
   15.2270   12.2880   22.7220 H   0  0  0  0  0  0  0  0  0  0  0  0
   17.6260    9.4860   23.4460 H   0  0  0  0  0  0  0  0  0  0  0  0
   17.1880   10.7230   22.2650 H   0  0  0  0  0  0  0  0  0  0  0  0
   16.0570    9.4160   22.6440 H   0  0  0  0  0  0  0  0  0  0  0  0
  1 20  1  0  0  0  0
  1 21  2  0  0  0  0
  1 22  1  0  0  0  0
  2  6  1  0  0  0  0
  2 19  1  0  0  0  0
  2 23  1  0  0  0  0
  2 35  1  0  0  0  0
  3 18  1  0  0  0  0
  3 19  1  0  0  0  0
  3 36  1  0  0  0  0
  3 37  1  0  0  0  0
  4 16  2  0  0  0  0
  4 18  1  0  0  0  0
  4 38  1  0  0  0  0
  5 13  1  0  0  0  0
  5 14  1  0  0  0  0
  5 15  2  0  0  0  0
  6 24  1  0  0  0  0
  6 39  1  0  0  0  0
  6 40  1  0  0  0  0
  7  8  1  0  0  0  0
  7 10  1  0  0  0  0
  7 24  1  0  0  0  0
  7 27  1  0  0  0  0
  8  9  1  0  0  0  0
  8 41  1  0  0  0  0
  8 42  1  0  0  0  0
  9 25  1  0  0  0  0
  9 43  1  0  0  0  0
  9 44  1  0  0  0  0
 10 12  2  0  0  0  0
 10 28  1  0  0  0  0
 11 29  2  0  0  0  0
 11 30  1  0  0  0  0
 11 45  1  0  0  0  0
 12 29  1  0  0  0  0
 12 46  1  0  0  0  0
 14 18  2  0  0  0  0
 14 47  1  0  0  0  0
 15 16  1  0  0  0  0
 15 48  1  0  0  0  0
 16 17  1  0  0  0  0
 19 20  1  0  0  0  0
 19 49  1  0  0  0  0
 20 50  1  0  0  0  0
 22 51  1  0  0  0  0
 22 52  1  0  0  0  0
 22 53  1  0  0  0  0
 23 54  1  0  0  0  0
 24 55  1  0  0  0  0
 24 56  1  0  0  0  0
 25 26  1  0  0  0  0
 25 57  1  0  0  0  0
 25 64  1  0  0  0  0
 26 27  1  0  0  0  0
 26 62  1  0  0  0  0
 26 63  1  0  0  0  0
 27 65  1  0  0  0  0
 27 66  1  0  0  0  0
 28 30  2  0  0  0  0
 28 67  1  0  0  0  0
 29 31  1  0  0  0  0
 30 68  1  0  0  0  0
 31 32  1  0  0  0  0
 31 33  1  0  0  0  0
 31 34  1  0  0  0  0
 32 69  1  0  0  0  0
 32 70  1  0  0  0  0
 32 71  1  0  0  0  0
 33 72  1  0  0  0  0
 33 73  1  0  0  0  0
 33 74  1  0  0  0  0
 34 75  1  0  0  0  0
 34 76  1  0  0  0  0
 34 77  1  0  0  0  0
 57 58  1  0  0  0  0
 58 59  1  0  0  0  0
 58 60  1  0  0  0  0
 58 61  1  0  0  0  0
M  CHG  1  24   1
M  END
>  <PARENT_CMPD_ID>
CHEMBL569608

>  <STANDARD_TYPE>
IC50

>  <RELATION>
=

>  <STANDARD_VALUE>
24

>  <STANDARD_UNITS>
nM

>  <COMPOUND_KEY>
38

>  <PUBMED_ID>
19811916

>  <JOURNAL>
Bioorg. Med. Chem. Lett.

>  <YEAR>
2009

>  <VOLUME>
19

>  <FIRST_PAGE>
6386

>  <Company>
Elan

>  <idx>
542

>  <Model>
Valid

>  <target>
7.6197886

>  <des_pred_mlr>
7.06708

>  <RF_Canvas>
7.5202379

>  <DNN_Canvas>
7.9394927

>  <pred_CoMFA>
7.7639999

>  <pred_COMSIA>
8.1736002

>  <pred_abm5>
7.6010351

>  <pred_ff8>
6.9550428

>  <pred_gau6>
7.6712027

>  <CID>
BACE_542

>  <active>
1

>  <des_class_bayes>
1

>  <maacs_class_bayes>
1

>  <radial_class_bayes>
1

>  <dend_class_bayes>
1

>  <molprint_class_bayes>
1

>  <RF_canvas>
1

>  <DNN_canvas>
1

$$$$
CHEMBL1934294
  MOE2015           3D

 75 80  0  0  1  0  0  0  0  0999 V2000
   23.1460   10.8050   23.3790 C   0  0  3  0  0  0  0  0  0  0  0  0
   24.1330    9.8250   24.0670 C   0  0  0  0  0  0  0  0  0  0  0  0
   24.9210   10.3180   24.6450 H   0  0  0  0  0  0  0  0  0  0  0  0
   24.6010    9.1020   23.3920 H   0  0  0  0  0  0  0  0  0  0  0  0
   23.3150    9.0110   25.0260 N   0  3  0  0  0  0  0  0  0  0  0  0
   23.6450    9.1410   25.9930 H   0  0  0  0  0  0  0  0  0  0  0  0
   23.4230    8.0080   24.8190 H   0  0  0  0  0  0  0  0  0  0  0  0
   21.8900    9.4210   24.9030 C   0  0  0  0  0  0  0  0  0  0  0  0
   21.6890   10.1100   25.7290 H   0  0  0  0  0  0  0  0  0  0  0  0
   21.2670    8.5280   25.0200 H   0  0  0  0  0  0  0  0  0  0  0  0
   21.8030   10.0370   23.5180 C   0  0  3  0  0  0  0  0  0  0  0  0
   21.7420    9.1930   22.8300 H   0  0  0  0  0  0  0  0  0  0  0  0
   20.5450   10.8840   23.4540 C   0  0  0  0  0  0  0  0  0  0  0  0
   20.2490   11.5690   24.4380 O   0  0  0  0  0  0  0  0  0  0  0  0
   19.7810   10.8940   22.3020 N   0  0  0  0  0  0  0  0  0  0  0  0
   20.0450   10.1690   21.0670 C   0  0  0  0  0  0  0  0  0  0  0  0
   19.1430    9.6040   20.8100 H   0  0  0  0  0  0  0  0  0  0  0  0
   20.8330    9.4250   21.1580 H   0  0  0  0  0  0  0  0  0  0  0  0
   20.3800   11.1410   19.9480 C   0  0  0  0  0  0  0  0  0  0  0  0
   19.8940   10.7940   19.0270 H   0  0  0  0  0  0  0  0  0  0  0  0
   21.4490   11.1170   19.7310 H   0  0  0  0  0  0  0  0  0  0  0  0
   19.9750   12.5720   20.2980 C   0  0  3  0  0  0  0  0  0  0  0  0
   20.6550   12.9450   21.0800 H   0  0  0  0  0  0  0  0  0  0  0  0
   18.5730   12.5390   20.9160 C   0  0  0  0  0  0  0  0  0  0  0  0
   17.8760   12.0680   20.2120 H   0  0  0  0  0  0  0  0  0  0  0  0
   18.1980   13.5560   21.0880 H   0  0  0  0  0  0  0  0  0  0  0  0
   18.5880   11.7620   22.2540 C   0  0  3  0  0  0  0  0  0  0  0  0
   18.6700   12.5120   23.0510 H   0  0  0  0  0  0  0  0  0  0  0  0
   20.1610   13.4680   19.1050 C   0  0  0  0  0  0  0  0  0  0  0  0
   21.2900   14.2900   19.0390 C   0  0  0  0  0  0  0  0  0  0  0  0
   22.0050   14.3090   19.8580 H   0  0  0  0  0  0  0  0  0  0  0  0
   21.5230   15.1000   17.9370 C   0  0  0  0  0  0  0  0  0  0  0  0
   22.4030   15.7350   17.9010 H   0  0  0  0  0  0  0  0  0  0  0  0
   20.6280   15.0980   16.8810 C   0  0  0  0  0  0  0  0  0  0  0  0
   20.8040   15.7310   16.0160 H   0  0  0  0  0  0  0  0  0  0  0  0
   19.5070   14.2850   16.9300 C   0  0  0  0  0  0  0  0  0  0  0  0
   18.8060   14.2800   16.0990 H   0  0  0  0  0  0  0  0  0  0  0  0
   19.2750   13.4720   18.0330 C   0  0  0  0  0  0  0  0  0  0  0  0
   18.3940   12.8360   18.0360 H   0  0  0  0  0  0  0  0  0  0  0  0
   23.1340   12.1330   24.1830 C   0  0  0  0  0  0  0  0  0  0  0  0
   23.1610   11.9430   25.2630 H   0  0  0  0  0  0  0  0  0  0  0  0
   22.2180   12.7000   23.9940 H   0  0  0  0  0  0  0  0  0  0  0  0
   24.2680   13.0630   23.8090 C   0  0  0  0  0  0  0  0  0  0  0  0
   25.2400   12.5800   23.9630 H   0  0  0  0  0  0  0  0  0  0  0  0
   24.2470   13.9530   24.4500 H   0  0  0  0  0  0  0  0  0  0  0  0
   24.0880   13.4750   22.3660 C   0  0  0  0  0  0  0  0  0  0  0  0
   24.9320   14.1150   22.0800 H   0  0  0  0  0  0  0  0  0  0  0  0
   23.1720   14.0650   22.2420 H   0  0  0  0  0  0  0  0  0  0  0  0
   24.0180   12.2740   21.4720 C   0  0  0  0  0  0  0  0  0  0  0  0
   23.5860   11.0200   21.9350 C   0  0  0  0  0  0  0  0  0  0  0  0
   24.4040   12.4380   20.1400 C   0  0  0  0  0  0  0  0  0  0  0  0
   24.7110   13.4190   19.7820 H   0  0  0  0  0  0  0  0  0  0  0  0
   24.4200   11.3580   19.2780 C   0  0  0  0  0  0  0  0  0  0  0  0
   24.9440   11.5980   17.4870 Br  0  0  0  0  0  0  0  0  0  0  0  0
   24.0600   10.1050   19.7250 C   0  0  0  0  0  0  0  0  0  0  0  0
   24.0840    9.2470   19.0580 H   0  0  0  0  0  0  0  0  0  0  0  0
   23.6460    9.9410   21.0410 C   0  0  0  0  0  0  0  0  0  0  0  0
   23.3680    8.9350   21.3480 H   0  0  0  0  0  0  0  0  0  0  0  0
   14.8230   10.2120   23.9500 C   0  0  0  0  0  0  0  0  0  0  0  0
   13.9360    9.5730   24.0280 H   0  0  0  0  0  0  0  0  0  0  0  0
   14.7830   10.9100   24.7960 H   0  0  0  0  0  0  0  0  0  0  0  0
   14.7820   10.9900   22.6530 C   0  0  0  0  0  0  0  0  0  0  0  0
   13.9050   11.6470   22.6470 H   0  0  0  0  0  0  0  0  0  0  0  0
   14.6610   10.2970   21.8110 H   0  0  0  0  0  0  0  0  0  0  0  0
   16.0390   11.8190   22.4520 C   0  0  0  0  0  0  0  0  0  0  0  0
   16.0920   12.6000   23.2210 H   0  0  0  0  0  0  0  0  0  0  0  0
   15.9570   12.3340   21.4890 H   0  0  0  0  0  0  0  0  0  0  0  0
   17.2930   10.9500   22.5020 C   0  0  0  0  0  0  0  0  0  0  0  0
   17.2010   10.2020   21.7020 H   0  0  0  0  0  0  0  0  0  0  0  0
   17.3290   10.1890   23.8310 C   0  0  0  0  0  0  0  0  0  0  0  0
   17.4560   10.8950   24.6620 H   0  0  0  0  0  0  0  0  0  0  0  0
   18.1820    9.5030   23.8620 H   0  0  0  0  0  0  0  0  0  0  0  0
   16.0730    9.3680   24.0530 C   0  0  0  0  0  0  0  0  0  0  0  0
   16.1150    8.8890   25.0380 H   0  0  0  0  0  0  0  0  0  0  0  0
   16.0310    8.5600   23.3120 H   0  0  0  0  0  0  0  0  0  0  0  0
  1  2  1  0  0  0  0
  1 11  1  0  0  0  0
  1 40  1  0  0  0  0
  1 50  1  0  0  0  0
  2  3  1  0  0  0  0
  2  4  1  0  0  0  0
  2  5  1  0  0  0  0
  5  6  1  0  0  0  0
  5  7  1  0  0  0  0
  5  8  1  0  0  0  0
  8  9  1  0  0  0  0
  8 10  1  0  0  0  0
  8 11  1  0  0  0  0
 11 12  1  0  0  0  0
 11 13  1  0  0  0  0
 13 14  2  0  0  0  0
 13 15  1  0  0  0  0
 15 16  1  0  0  0  0
 15 27  1  0  0  0  0
 16 17  1  0  0  0  0
 16 18  1  0  0  0  0
 16 19  1  0  0  0  0
 19 20  1  0  0  0  0
 19 21  1  0  0  0  0
 19 22  1  0  0  0  0
 22 23  1  0  0  0  0
 22 24  1  0  0  0  0
 22 29  1  0  0  0  0
 24 25  1  0  0  0  0
 24 26  1  0  0  0  0
 24 27  1  0  0  0  0
 27 28  1  0  0  0  0
 27 68  1  0  0  0  0
 29 30  1  0  0  0  0
 29 38  2  0  0  0  0
 30 31  1  0  0  0  0
 30 32  2  0  0  0  0
 32 33  1  0  0  0  0
 32 34  1  0  0  0  0
 34 35  1  0  0  0  0
 34 36  2  0  0  0  0
 36 37  1  0  0  0  0
 36 38  1  0  0  0  0
 38 39  1  0  0  0  0
 40 41  1  0  0  0  0
 40 42  1  0  0  0  0
 40 43  1  0  0  0  0
 43 44  1  0  0  0  0
 43 45  1  0  0  0  0
 43 46  1  0  0  0  0
 46 47  1  0  0  0  0
 46 48  1  0  0  0  0
 46 49  1  0  0  0  0
 49 50  1  0  0  0  0
 49 51  2  0  0  0  0
 50 57  2  0  0  0  0
 51 52  1  0  0  0  0
 51 53  1  0  0  0  0
 53 54  1  0  0  0  0
 53 55  2  0  0  0  0
 55 56  1  0  0  0  0
 55 57  1  0  0  0  0
 57 58  1  0  0  0  0
 59 60  1  0  0  0  0
 59 61  1  0  0  0  0
 59 62  1  0  0  0  0
 59 73  1  0  0  0  0
 62 63  1  0  0  0  0
 62 64  1  0  0  0  0
 62 65  1  0  0  0  0
 65 66  1  0  0  0  0
 65 67  1  0  0  0  0
 65 68  1  0  0  0  0
 68 69  1  0  0  0  0
 68 70  1  0  0  0  0
 70 71  1  0  0  0  0
 70 72  1  0  0  0  0
 70 73  1  0  0  0  0
 73 74  1  0  0  0  0
 73 75  1  0  0  0  0
M  CHG  1   5   1
M  END
>  <PARENT_CMPD_ID>
CHEMBL1934294

>  <STANDARD_TYPE>
IC50

>  <RELATION>
=

>  <STANDARD_VALUE>
24

>  <STANDARD_UNITS>
nM

>  <COMPOUND_KEY>
11

>  <PUBMED_ID>
22130130

>  <JOURNAL>
Bioorg. Med. Chem. Lett.

>  <YEAR>
2012

>  <VOLUME>
22

>  <FIRST_PAGE>
240

>  <Company>
Merck

>  <idx>
543

>  <Model>
Valid

>  <target>
7.6197886

>  <des_pred_mlr>
7.4518199

>  <RF_Canvas>
7.0226507

>  <DNN_Canvas>
6.6099849

>  <pred_CoMFA>
7.8183999

>  <pred_COMSIA>
8.2761002

>  <pred_abm5>
7.1162882

>  <pred_ff8>
6.0540576

>  <pred_gau6>
8.1329269

>  <CID>
BACE_543

>  <active>
1

>  <des_class_bayes>
1

>  <maacs_class_bayes>
0

>  <radial_class_bayes>
0

>  <dend_class_bayes>
0

>  <molprint_class_bayes>
0

>  <RF_canvas>
0

>  <DNN_canvas>
0

$$$$
22380629_60b
  MOE2015           3D
HYDROLASE/HYDROLASE INHIBITOR
 69 71  0  0  1  0  0  0  0  0999 V2000
   28.4940   11.3950   20.8770 C   0  0  0  0  0  0  0  0  0  0  0  0
   29.2090   12.2240   20.8260 H   0  0  0  0  0  0  0  0  0  0  0  0
   27.9670   11.5010   21.8320 H   0  0  0  0  0  0  0  0  0  0  0  0
   27.6420   11.5150   19.7400 O   0  0  0  0  0  0  0  0  0  0  0  0
   26.2850   11.4730   19.9360 C   0  0  0  0  0  0  0  0  0  0  0  0
   25.5150   12.2210   19.0350 C   0  0  0  0  0  0  0  0  0  0  0  0
   24.1270   12.1810   19.1610 C   0  0  0  0  0  0  0  0  0  0  0  0
   23.5000   11.4310   20.1450 C   0  0  0  0  0  0  0  0  0  0  0  0
   22.4150   11.4480   20.2010 H   0  0  0  0  0  0  0  0  0  0  0  0
   24.2590   10.6860   21.0440 C   0  0  0  0  0  0  0  0  0  0  0  0
   25.6540   10.6970   20.9150 C   0  0  0  0  0  0  0  0  0  0  0  0
   26.2500   10.0860   21.5880 H   0  0  0  0  0  0  0  0  0  0  0  0
   23.5950    9.9280   22.1700 C   0  0  0  0  0  0  0  0  0  0  0  0
   24.3260    9.2730   22.6610 H   0  0  0  0  0  0  0  0  0  0  0  0
   22.8400    9.2630   21.7340 H   0  0  0  0  0  0  0  0  0  0  0  0
   22.9500   10.8570   23.2170 C   0  0  3  0  0  0  0  0  0  0  0  0
   22.1690   11.4300   22.6980 H   0  0  0  0  0  0  0  0  0  0  0  0
   22.2540   10.0750   24.3620 C   0  0  3  0  0  0  0  0  0  0  0  0
   22.9900    9.4530   24.8850 H   0  0  0  0  0  0  0  0  0  0  0  0
   21.5410   11.0080   25.3720 C   0  0  3  0  0  0  0  0  0  0  0  0
   20.7340   11.5230   24.8400 H   0  0  0  0  0  0  0  0  0  0  0  0
   22.4640   11.9950   26.0520 C   0  0  0  0  0  0  0  0  0  0  0  0
   23.2670   11.4950   26.6040 H   0  0  0  0  0  0  0  0  0  0  0  0
   21.9290   12.6550   26.7410 H   0  0  0  0  0  0  0  0  0  0  0  0
   23.2110   13.0380   24.8320 S   0  0  0  0  0  0  0  0  0  0  0  0
   23.9830   11.8320   23.7880 C   0  0  0  0  0  0  0  0  0  0  0  0
   24.4840   12.4140   23.0090 H   0  0  0  0  0  0  0  0  0  0  0  0
   24.7480   11.3160   24.3770 H   0  0  0  0  0  0  0  0  0  0  0  0
   24.2440   13.8200   25.4690 O   0  0  0  0  0  0  0  0  0  0  0  0
   22.1610   13.6710   24.0660 O   0  0  0  0  0  0  0  0  0  0  0  0
   20.8650   10.1200   26.4010 N   0  3  0  0  0  0  0  0  0  0  0  0
   21.5540    9.6320   26.9890 H   0  0  0  0  0  0  0  0  0  0  0  0
   20.4220    9.3700   25.8390 H   0  0  0  0  0  0  0  0  0  0  0  0
   19.8220   10.7470   27.2740 C   0  0  0  0  0  0  0  0  0  0  0  0
   20.3440   11.4300   27.9530 H   0  0  0  0  0  0  0  0  0  0  0  0
   19.4110    9.9370   27.8870 H   0  0  0  0  0  0  0  0  0  0  0  0
   18.7170   11.4340   26.5290 C   0  0  0  0  0  0  0  0  0  0  0  0
   17.8020   10.6920   25.7760 C   0  0  0  0  0  0  0  0  0  0  0  0
   17.8910    9.6070   25.7650 H   0  0  0  0  0  0  0  0  0  0  0  0
   16.7790   11.2990   25.0320 C   0  0  0  0  0  0  0  0  0  0  0  0
   16.7110   12.6930   25.0670 C   0  0  0  0  0  0  0  0  0  0  0  0
   15.9530   13.2380   24.5110 H   0  0  0  0  0  0  0  0  0  0  0  0
   17.6090   13.4440   25.8170 C   0  0  0  0  0  0  0  0  0  0  0  0
   17.5290   14.5290   25.8250 H   0  0  0  0  0  0  0  0  0  0  0  0
   18.6060   12.8200   26.5470 C   0  0  0  0  0  0  0  0  0  0  0  0
   19.2970   13.4340   27.1200 H   0  0  0  0  0  0  0  0  0  0  0  0
   15.8100   10.4440   24.2140 C   0  0  0  0  0  0  0  0  0  0  0  0
   15.1580    9.3780   25.1070 C   0  0  0  0  0  0  0  0  0  0  0  0
   14.6420    9.8360   25.9590 H   0  0  0  0  0  0  0  0  0  0  0  0
   15.8830    8.6620   25.5090 H   0  0  0  0  0  0  0  0  0  0  0  0
   14.4170    8.7910   24.5500 H   0  0  0  0  0  0  0  0  0  0  0  0
   14.6670   11.2410   23.5680 C   0  0  0  0  0  0  0  0  0  0  0  0
   14.0670   11.7690   24.3180 H   0  0  0  0  0  0  0  0  0  0  0  0
   13.9850   10.5830   23.0150 H   0  0  0  0  0  0  0  0  0  0  0  0
   15.0400   11.9810   22.8500 H   0  0  0  0  0  0  0  0  0  0  0  0
   16.5800    9.7500   23.0830 C   0  0  0  0  0  0  0  0  0  0  0  0
   17.3600    9.0810   23.4630 H   0  0  0  0  0  0  0  0  0  0  0  0
   17.0700   10.4810   22.4290 H   0  0  0  0  0  0  0  0  0  0  0  0
   15.9130    9.1430   22.4600 H   0  0  0  0  0  0  0  0  0  0  0  0
   21.2400    9.1960   23.8640 O   0  0  0  0  0  0  0  0  0  0  0  0
   20.8190    9.5900   23.0760 H   0  0  0  0  0  0  0  0  0  0  0  0
   23.3700   12.8920   18.3170 F   0  0  0  0  0  0  0  0  0  0  0  0
   26.1200   12.9870   18.0470 N   0  0  0  0  0  0  0  0  0  0  0  0
   25.5600   13.5330   17.4060 H   0  0  0  0  0  0  0  0  0  0  0  0
   27.1310   12.9820   17.9820 H   0  0  0  0  0  0  0  0  0  0  0  0
   29.2580   10.0860   20.8000 C   0  0  0  0  0  0  0  0  0  0  0  0
   28.5710    9.2340   20.8270 H   0  0  0  0  0  0  0  0  0  0  0  0
   29.9610    9.9970   21.6330 H   0  0  0  0  0  0  0  0  0  0  0  0
   29.8140   10.0180   19.8590 H   0  0  0  0  0  0  0  0  0  0  0  0
  1  2  1  0  0  0  0
  1  3  1  0  0  0  0
  1  4  1  0  0  0  0
  1 66  1  0  0  0  0
  4  5  1  0  0  0  0
  5  6  1  0  0  0  0
  5 11  2  0  0  0  0
  6  7  2  0  0  0  0
  6 63  1  0  0  0  0
  7  8  1  0  0  0  0
  7 62  1  0  0  0  0
  8  9  1  0  0  0  0
  8 10  2  0  0  0  0
 10 11  1  0  0  0  0
 10 13  1  0  0  0  0
 11 12  1  0  0  0  0
 13 14  1  0  0  0  0
 13 15  1  0  0  0  0
 13 16  1  0  0  0  0
 16 17  1  0  0  0  0
 16 18  1  0  0  0  0
 16 26  1  0  0  0  0
 18 19  1  0  0  0  0
 18 20  1  0  0  0  0
 18 60  1  0  0  0  0
 20 21  1  0  0  0  0
 20 22  1  0  0  0  0
 20 31  1  0  0  0  0
 22 23  1  0  0  0  0
 22 24  1  0  0  0  0
 22 25  1  0  0  0  0
 25 26  1  0  0  0  0
 25 29  2  0  0  0  0
 25 30  2  0  0  0  0
 26 27  1  0  0  0  0
 26 28  1  0  0  0  0
 31 32  1  0  0  0  0
 31 33  1  0  0  0  0
 31 34  1  0  0  0  0
 34 35  1  0  0  0  0
 34 36  1  0  0  0  0
 34 37  1  0  0  0  0
 37 38  1  0  0  0  0
 37 45  2  0  0  0  0
 38 39  1  0  0  0  0
 38 40  2  0  0  0  0
 40 41  1  0  0  0  0
 40 47  1  0  0  0  0
 41 42  1  0  0  0  0
 41 43  2  0  0  0  0
 43 44  1  0  0  0  0
 43 45  1  0  0  0  0
 45 46  1  0  0  0  0
 47 48  1  0  0  0  0
 47 52  1  0  0  0  0
 47 56  1  0  0  0  0
 48 49  1  0  0  0  0
 48 50  1  0  0  0  0
 48 51  1  0  0  0  0
 52 53  1  0  0  0  0
 52 54  1  0  0  0  0
 52 55  1  0  0  0  0
 56 57  1  0  0  0  0
 56 58  1  0  0  0  0
 56 59  1  0  0  0  0
 60 61  1  0  0  0  0
 63 64  1  0  0  0  0
 63 65  1  0  0  0  0
 66 67  1  0  0  0  0
 66 68  1  0  0  0  0
 66 69  1  0  0  0  0
M  CHG  1  31   1
M  END
>  <PARENT_CMPD_ID>
22380629_60b

>  <STANDARD_TYPE>
IC50

>  <RELATION>
=

>  <STANDARD_VALUE>
24

>  <STANDARD_UNITS>
nM

>  <COMPOUND_KEY>
60b

>  <PUBMED_ID>
22380629

>  <JOURNAL>
J.Med.Chem.

>  <YEAR>
2012

>  <VOLUME>
55

>  <FIRST_PAGE>
3364

>  <Company>
Novartis

>  <idx>
544

>  <Model>
Valid

>  <target>
7.6197886

>  <des_pred_mlr>
6.7137699

>  <RF_Canvas>
7.067122

>  <DNN_Canvas>
7.3032117

>  <pred_CoMFA>
7.6132002

>  <pred_COMSIA>
7.1924

>  <pred_abm5>
7.6973066

>  <pred_ff8>
7.857059

>  <pred_gau6>
7.0960073

>  <CID>
BACE_544

>  <active>
1

>  <des_class_bayes>
0

>  <maacs_class_bayes>
1

>  <radial_class_bayes>
1

>  <dend_class_bayes>
1

>  <molprint_class_bayes>
1

>  <RF_canvas>
1

>  <DNN_canvas>
1

$$$$
23537249_43
  MOE2015           3D

 48 51  0  0  1  0  0  0  0  0999 V2000
   25.1970   11.0030   19.9970 C   0  0  0  0  0  0  0  0  0  0  0  0
   24.7410   11.1690   18.6940 C   0  0  0  0  0  0  0  0  0  0  0  0
   23.3810   11.2470   18.4280 C   0  0  0  0  0  0  0  0  0  0  0  0
   22.4440   11.1570   19.4570 C   0  0  0  0  0  0  0  0  0  0  0  0
   22.8800   11.0190   20.7750 C   0  0  0  0  0  0  0  0  0  0  0  0
   24.2530   10.9260   21.0180 C   0  0  0  0  0  0  0  0  0  0  0  0
   20.9870   11.2560   19.1170 C   0  0  0  0  0  0  0  0  0  0  0  0
   20.8020   10.7890   18.1400 H   0  0  0  0  0  0  0  0  0  0  0  0
   20.7510   12.3230   19.0070 H   0  0  0  0  0  0  0  0  0  0  0  0
   20.0710   10.6190   20.1660 C   0  0  0  0  0  0  0  0  0  0  0  0
   20.4450   11.1710   21.5490 C   0  0  0  0  0  0  0  0  0  0  0  0
   21.9170   10.9590   21.9450 C   0  0  3  0  0  0  0  0  0  0  0  0
   26.6150   10.9330   20.3160 C   0  0  0  0  0  0  0  0  0  0  0  0
   18.6240   11.0100   19.8520 C   0  0  0  0  0  0  0  0  0  0  0  0
   20.1660    9.0910   20.1170 C   0  0  0  0  0  0  0  0  0  0  0  0
   22.2870   11.9990   22.9960 C   0  0  0  0  0  0  0  0  0  0  0  0
   22.5730   11.3080   24.1330 N   0  0  0  0  0  0  0  0  0  0  0  0
   22.4120    9.9910   23.8920 C   0  0  0  0  0  0  0  0  0  0  0  0
   22.0390    9.6740   22.6920 N   0  0  0  0  0  0  0  0  0  0  0  0
   22.6340    9.0700   24.8550 N   0  0  0  0  0  0  0  0  0  0  0  0
   22.3380   13.2070   22.8290 O   0  0  0  0  0  0  0  0  0  0  0  0
   22.9860   11.9280   25.3660 C   0  0  0  0  0  0  0  0  0  0  0  0
   27.1120    9.9400   21.1690 C   0  0  0  0  0  0  0  0  0  0  0  0
   26.4430    9.1800   21.5680 H   0  0  0  0  0  0  0  0  0  0  0  0
   28.4620    9.9030   21.5140 C   0  0  0  0  0  0  0  0  0  0  0  0
   29.0350    8.6730   22.5700 Cl  0  0  0  0  0  0  0  0  0  0  0  0
   29.3460   10.8450   21.0150 C   0  0  0  0  0  0  0  0  0  0  0  0
   30.3990   10.8310   21.2730 H   0  0  0  0  0  0  0  0  0  0  0  0
   28.8580   11.8220   20.1640 C   0  0  0  0  0  0  0  0  0  0  0  0
   29.6970   12.7430   19.6740 F   0  0  0  0  0  0  0  0  0  0  0  0
   27.5140   11.8750   19.8150 C   0  0  0  0  0  0  0  0  0  0  0  0
   25.4400   11.2300   17.8630 H   0  0  0  0  0  0  0  0  0  0  0  0
   23.0520   11.3740   17.3980 H   0  0  0  0  0  0  0  0  0  0  0  0
   24.6000   10.8090   22.0440 H   0  0  0  0  0  0  0  0  0  0  0  0
   19.7830   10.7450   22.3160 H   0  0  0  0  0  0  0  0  0  0  0  0
   20.2270   12.2490   21.5500 H   0  0  0  0  0  0  0  0  0  0  0  0
   18.4870   12.0970   19.8720 H   0  0  0  0  0  0  0  0  0  0  0  0
   17.9280   10.5770   20.5810 H   0  0  0  0  0  0  0  0  0  0  0  0
   18.3230   10.6590   18.8580 H   0  0  0  0  0  0  0  0  0  0  0  0
   21.1850    8.7220   20.2630 H   0  0  0  0  0  0  0  0  0  0  0  0
   19.8250    8.7070   19.1490 H   0  0  0  0  0  0  0  0  0  0  0  0
   19.5370    8.6340   20.8900 H   0  0  0  0  0  0  0  0  0  0  0  0
   22.5000    8.0940   24.6240 H   0  0  0  0  0  0  0  0  0  0  0  0
   22.9190    9.3010   25.7950 H   0  0  0  0  0  0  0  0  0  0  0  0
   23.0290   13.0150   25.2700 H   0  0  0  0  0  0  0  0  0  0  0  0
   23.9730   11.5430   25.6410 H   0  0  0  0  0  0  0  0  0  0  0  0
   22.2790   11.6540   26.1540 H   0  0  0  0  0  0  0  0  0  0  0  0
   27.1830   12.6770   19.1600 H   0  0  0  0  0  0  0  0  0  0  0  0
  1  2  1  0  0  0  0
  1  6  2  0  0  0  0
  1 13  1  0  0  0  0
  2  3  2  0  0  0  0
  2 32  1  0  0  0  0
  3  4  1  0  0  0  0
  3 33  1  0  0  0  0
  4  5  2  0  0  0  0
  4  7  1  0  0  0  0
  5  6  1  0  0  0  0
  5 12  1  0  0  0  0
  6 34  1  0  0  0  0
  7  8  1  0  0  0  0
  7  9  1  0  0  0  0
  7 10  1  0  0  0  0
 10 11  1  0  0  0  0
 10 14  1  0  0  0  0
 10 15  1  0  0  0  0
 11 12  1  0  0  0  0
 11 35  1  0  0  0  0
 11 36  1  0  0  0  0
 12 16  1  0  0  0  0
 12 19  1  0  0  0  0
 13 23  1  0  0  0  0
 13 31  2  0  0  0  0
 14 37  1  0  0  0  0
 14 38  1  0  0  0  0
 14 39  1  0  0  0  0
 15 40  1  0  0  0  0
 15 41  1  0  0  0  0
 15 42  1  0  0  0  0
 16 17  1  0  0  0  0
 16 21  2  0  0  0  0
 17 18  1  0  0  0  0
 17 22  1  0  0  0  0
 18 19  2  0  0  0  0
 18 20  1  0  0  0  0
 20 43  1  0  0  0  0
 20 44  1  0  0  0  0
 22 45  1  0  0  0  0
 22 46  1  0  0  0  0
 22 47  1  0  0  0  0
 23 24  1  0  0  0  0
 23 25  2  0  0  0  0
 25 26  1  0  0  0  0
 25 27  1  0  0  0  0
 27 28  1  0  0  0  0
 27 29  2  0  0  0  0
 29 30  1  0  0  0  0
 29 31  1  0  0  0  0
 31 48  1  0  0  0  0
M  END
>  <PARENT_CMPD_ID>
23537249_43

>  <STANDARD_TYPE>
IC50

>  <RELATION>
=

>  <STANDARD_VALUE>
0.024

>  <STANDARD_UNITS>
uM

>  <COMPOUND_KEY>
43

>  <PUBMED_ID>
23537249

>  <JOURNAL>
J.Med.Chem.

>  <YEAR>
2013

>  <VOLUME>
56

>  <FIRST_PAGE>
3379

>  <Company>
Array

>  <idx>
545

>  <Model>
Valid

>  <target>
7.6197886

>  <des_pred_mlr>
6.5860901

>  <RF_Canvas>
7.3064079

>  <DNN_Canvas>
7.2712498

>  <pred_CoMFA>
7.2800002

>  <pred_COMSIA>
6.9116001

>  <pred_abm5>
6.9822693

>  <pred_ff8>
5.653554

>  <pred_gau6>
7.1113672

>  <CID>
BACE_545

>  <active>
1

>  <des_class_bayes>
0

>  <maacs_class_bayes>
0

>  <radial_class_bayes>
0

>  <dend_class_bayes>
1

>  <molprint_class_bayes>
1

>  <RF_canvas>
1

>  <DNN_canvas>
1

$$$$
CHEMBL558946
  MOE2015           3D

 90 93  0  0  1  0  0  0  0  0999 V2000
   28.5220   16.1730   30.5620 C   0  0  0  0  0  0  0  0  0  0  0  0
   27.6140   15.9700   29.3620 C   0  0  0  0  0  0  0  0  0  0  0  0
   28.3120   16.3370   28.0580 C   0  0  0  0  0  0  0  0  0  0  0  0
   27.4460   16.0820   26.9510 O   0  0  0  0  0  0  0  0  0  0  0  0
   26.5990   17.1860   26.7740 N   0  0  0  0  0  0  0  0  0  0  0  0
   25.8350   17.0520   25.7320 C   0  0  0  0  0  0  0  0  0  0  0  0
   24.8370   18.1340   25.4470 C   0  0  0  0  0  0  0  0  0  0  0  0
   25.8530   15.9170   24.7980 C   0  0  0  0  0  0  0  0  0  0  0  0
   27.0160   15.6500   24.0810 C   0  0  0  0  0  0  0  0  0  0  0  0
   27.0420   14.5930   23.1870 C   0  0  0  0  0  0  0  0  0  0  0  0
   25.9090   13.8060   23.0270 C   0  0  0  0  0  0  0  0  0  0  0  0
   24.7490   14.0800   23.7480 C   0  0  0  0  0  0  0  0  0  0  0  0
   24.7030   15.1530   24.6230 C   0  0  0  0  0  0  0  0  0  0  0  0
   23.5540   13.2450   23.5160 C   0  0  0  0  0  0  0  0  0  0  0  0
   22.4260   13.7120   23.4550 O   0  0  0  0  0  0  0  0  0  0  0  0
   23.8160   11.9030   23.3790 N   0  0  0  0  0  0  0  0  0  0  0  0
   22.7980   10.9440   22.9720 C   0  0  3  0  0  0  0  0  0  0  0  0
   23.3440   10.0210   21.8690 C   0  0  0  0  0  0  0  0  0  0  0  0
   23.8930   10.7830   20.6900 C   0  0  0  0  0  0  0  0  0  0  0  0
   25.2140   10.5950   20.2870 C   0  0  0  0  0  0  0  0  0  0  0  0
   25.7360   11.3390   19.2410 C   0  0  0  0  0  0  0  0  0  0  0  0
   27.0100   11.1580   18.8880 F   0  0  0  0  0  0  0  0  0  0  0  0
   24.9710   12.2720   18.5720 C   0  0  0  0  0  0  0  0  0  0  0  0
   23.6610   12.4500   18.9630 C   0  0  0  0  0  0  0  0  0  0  0  0
   22.9070   13.3550   18.3400 F   0  0  0  0  0  0  0  0  0  0  0  0
   23.1130   11.7120   20.0000 C   0  0  0  0  0  0  0  0  0  0  0  0
   22.3090   10.1880   24.2160 C   0  0  1  0  0  0  0  0  0  0  0  0
   23.4170    9.7020   24.9770 O   0  0  0  0  0  0  0  0  0  0  0  0
   21.4700   11.1010   25.1080 C   0  0  0  0  0  0  0  0  0  0  0  0
   20.8500   10.2780   26.1980 N   0  3  0  0  0  0  0  0  0  0  0  0
   19.9280   11.0490   27.0870 C   0  0  0  0  0  0  0  0  0  0  0  0
   18.7350   11.5950   26.3500 C   0  0  0  0  0  0  0  0  0  0  0  0
   18.4590   12.9610   26.3460 C   0  0  0  0  0  0  0  0  0  0  0  0
   17.3880   13.4590   25.6130 C   0  0  0  0  0  0  0  0  0  0  0  0
   16.5850   12.6040   24.8660 C   0  0  0  0  0  0  0  0  0  0  0  0
   16.8410   11.2380   24.8610 C   0  0  0  0  0  0  0  0  0  0  0  0
   16.1550   10.2840   24.1670 O   0  0  0  0  0  0  0  0  0  0  0  0
   15.0840   10.7320   23.3540 C   0  0  0  0  0  0  0  0  0  0  0  0
   17.9010   10.7440   25.6190 C   0  0  0  0  0  0  0  0  0  0  0  0
   28.1340   14.4940   22.2510 N   0  0  0  0  0  0  0  0  0  0  0  0
   28.6830   13.1330   22.0380 C   0  0  0  0  0  0  0  0  0  0  0  0
   30.0200   13.2160   21.3360 C   0  0  0  0  0  0  0  0  0  0  0  0
   29.9030   13.8720   19.9670 C   0  0  0  0  0  0  0  0  0  0  0  0
   29.3740   15.2970   20.0390 C   0  0  0  0  0  0  0  0  0  0  0  0
   27.7820   15.3580   20.7900 S   0  0  0  0  0  0  0  0  0  0  0  0
   27.4870   16.7390   21.1140 O   0  0  0  0  0  0  0  0  0  0  0  0
   26.8670   14.5680   19.9910 O   0  0  0  0  0  0  0  0  0  0  0  0
   27.9980   15.9020   31.4840 H   0  0  0  0  0  0  0  0  0  0  0  0
   28.8350   17.2190   30.6440 H   0  0  0  0  0  0  0  0  0  0  0  0
   29.4190   15.5510   30.4860 H   0  0  0  0  0  0  0  0  0  0  0  0
   26.7050   16.5710   29.4820 H   0  0  0  0  0  0  0  0  0  0  0  0
   27.2810   14.9260   29.3190 H   0  0  0  0  0  0  0  0  0  0  0  0
   29.2010   15.7130   27.9200 H   0  0  0  0  0  0  0  0  0  0  0  0
   28.6420   17.3830   28.0540 H   0  0  0  0  0  0  0  0  0  0  0  0
   24.4140   18.0460   24.4430 H   0  0  0  0  0  0  0  0  0  0  0  0
   25.3240   19.1110   25.5300 H   0  0  0  0  0  0  0  0  0  0  0  0
   24.0280   18.0800   26.1820 H   0  0  0  0  0  0  0  0  0  0  0  0
   27.8840   16.2970   24.1830 H   0  0  0  0  0  0  0  0  0  0  0  0
   25.8970   13.0380   22.2590 H   0  0  0  0  0  0  0  0  0  0  0  0
   23.7910   15.3770   25.1700 H   0  0  0  0  0  0  0  0  0  0  0  0
   24.7450   11.5480   23.5760 H   0  0  0  0  0  0  0  0  0  0  0  0
   21.9440   11.4920   22.5550 H   0  0  0  0  0  0  0  0  0  0  0  0
   24.1310    9.3770   22.2810 H   0  0  0  0  0  0  0  0  0  0  0  0
   22.5510    9.3510   21.5150 H   0  0  0  0  0  0  0  0  0  0  0  0
   25.8610    9.8790   20.7860 H   0  0  0  0  0  0  0  0  0  0  0  0
   25.3950   12.8610   17.7680 H   0  0  0  0  0  0  0  0  0  0  0  0
   22.0760   11.8930   20.2680 H   0  0  0  0  0  0  0  0  0  0  0  0
   21.7050    9.3250   23.9090 H   0  0  0  0  0  0  0  0  0  0  0  0
   23.9190    9.0640   24.4380 H   0  0  0  0  0  0  0  0  0  0  0  0
   20.6630   11.5660   24.5350 H   0  0  0  0  0  0  0  0  0  0  0  0
   22.0750   11.8620   25.6110 H   0  0  0  0  0  0  0  0  0  0  0  0
   20.3570    9.4690   25.8050 H   0  0  0  0  0  0  0  0  0  0  0  0
   21.6330    9.8920   26.7470 H   0  0  0  0  0  0  0  0  0  0  0  0
   19.6010   10.3600   27.8720 H   0  0  0  0  0  0  0  0  0  0  0  0
   20.5250   11.8420   27.5530 H   0  0  0  0  0  0  0  0  0  0  0  0
   19.0800   13.6590   26.9040 H   0  0  0  0  0  0  0  0  0  0  0  0
   17.1790   14.5270   25.6150 H   0  0  0  0  0  0  0  0  0  0  0  0
   15.7660   13.0360   24.2990 H   0  0  0  0  0  0  0  0  0  0  0  0
   14.6480    9.8590   22.8610 H   0  0  0  0  0  0  0  0  0  0  0  0
   15.4380   11.4130   22.5720 H   0  0  0  0  0  0  0  0  0  0  0  0
   14.2980   11.1990   23.9570 H   0  0  0  0  0  0  0  0  0  0  0  0
   18.0660    9.6690   25.6180 H   0  0  0  0  0  0  0  0  0  0  0  0
   28.8270   12.6460   23.0100 H   0  0  0  0  0  0  0  0  0  0  0  0
   27.9870   12.5110   21.4630 H   0  0  0  0  0  0  0  0  0  0  0  0
   30.7320   13.7810   21.9510 H   0  0  0  0  0  0  0  0  0  0  0  0
   30.4320   12.2070   21.2180 H   0  0  0  0  0  0  0  0  0  0  0  0
   29.2510   13.2630   19.3270 H   0  0  0  0  0  0  0  0  0  0  0  0
   30.8900   13.8830   19.4900 H   0  0  0  0  0  0  0  0  0  0  0  0
   29.2780   15.7230   19.0350 H   0  0  0  0  0  0  0  0  0  0  0  0
   30.0440   15.9370   20.6210 H   0  0  0  0  0  0  0  0  0  0  0  0
  1  2  1  0  0  0  0
  1 48  1  0  0  0  0
  1 49  1  0  0  0  0
  1 50  1  0  0  0  0
  2  3  1  0  0  0  0
  2 51  1  0  0  0  0
  2 52  1  0  0  0  0
  3  4  1  0  0  0  0
  3 53  1  0  0  0  0
  3 54  1  0  0  0  0
  4  5  1  0  0  0  0
  5  6  2  0  0  0  0
  6  7  1  0  0  0  0
  6  8  1  0  0  0  0
  7 55  1  0  0  0  0
  7 56  1  0  0  0  0
  7 57  1  0  0  0  0
  8  9  1  0  0  0  0
  8 13  2  0  0  0  0
  9 10  2  0  0  0  0
  9 58  1  0  0  0  0
 10 11  1  0  0  0  0
 10 40  1  0  0  0  0
 11 12  2  0  0  0  0
 11 59  1  0  0  0  0
 12 13  1  0  0  0  0
 12 14  1  0  0  0  0
 13 60  1  0  0  0  0
 14 15  2  0  0  0  0
 14 16  1  0  0  0  0
 16 17  1  0  0  0  0
 16 61  1  0  0  0  0
 17 18  1  0  0  0  0
 17 27  1  0  0  0  0
 17 62  1  0  0  0  0
 18 19  1  0  0  0  0
 18 63  1  0  0  0  0
 18 64  1  0  0  0  0
 19 20  2  0  0  0  0
 19 26  1  0  0  0  0
 20 21  1  0  0  0  0
 20 65  1  0  0  0  0
 21 22  1  0  0  0  0
 21 23  2  0  0  0  0
 23 24  1  0  0  0  0
 23 66  1  0  0  0  0
 24 25  1  0  0  0  0
 24 26  2  0  0  0  0
 26 67  1  0  0  0  0
 27 28  1  0  0  0  0
 27 29  1  0  0  0  0
 27 68  1  0  0  0  0
 28 69  1  0  0  0  0
 29 30  1  0  0  0  0
 29 70  1  0  0  0  0
 29 71  1  0  0  0  0
 30 31  1  0  0  0  0
 30 72  1  0  0  0  0
 30 73  1  0  0  0  0
 31 32  1  0  0  0  0
 31 74  1  0  0  0  0
 31 75  1  0  0  0  0
 32 33  1  0  0  0  0
 32 39  2  0  0  0  0
 33 34  2  0  0  0  0
 33 76  1  0  0  0  0
 34 35  1  0  0  0  0
 34 77  1  0  0  0  0
 35 36  2  0  0  0  0
 35 78  1  0  0  0  0
 36 37  1  0  0  0  0
 36 39  1  0  0  0  0
 37 38  1  0  0  0  0
 38 79  1  0  0  0  0
 38 80  1  0  0  0  0
 38 81  1  0  0  0  0
 39 82  1  0  0  0  0
 40 41  1  0  0  0  0
 40 45  1  0  0  0  0
 41 42  1  0  0  0  0
 41 83  1  0  0  0  0
 41 84  1  0  0  0  0
 42 43  1  0  0  0  0
 42 85  1  0  0  0  0
 42 86  1  0  0  0  0
 43 44  1  0  0  0  0
 43 87  1  0  0  0  0
 43 88  1  0  0  0  0
 44 45  1  0  0  0  0
 44 89  1  0  0  0  0
 44 90  1  0  0  0  0
 45 46  2  0  0  0  0
 45 47  2  0  0  0  0
M  CHG  1  30   1
M  END
>  <PARENT_CMPD_ID>
CHEMBL558946

>  <STANDARD_TYPE>
IC50

>  <RELATION>
=

>  <STANDARD_VALUE>
25

>  <STANDARD_UNITS>
nM

>  <COMPOUND_KEY>
4f

>  <PUBMED_ID>
19375914

>  <JOURNAL>
Bioorg. Med. Chem. Lett.

>  <YEAR>
2009

>  <VOLUME>
19

>  <FIRST_PAGE>
2654

>  <Company>
BMS

>  <idx>
546

>  <Model>
Valid

>  <target>
7.6020598

>  <des_pred_mlr>
7.7002501

>  <RF_Canvas>
7.8813291

>  <DNN_Canvas>
7.8001742

>  <pred_CoMFA>
7.0440001

>  <pred_COMSIA>
7.7880001

>  <pred_abm5>
6.5819173

>  <pred_ff8>
6.1210947

>  <pred_gau6>
7.7259617

>  <CID>
BACE_546

>  <active>
1

>  <des_class_bayes>
1

>  <maacs_class_bayes>
0

>  <radial_class_bayes>
1

>  <dend_class_bayes>
1

>  <molprint_class_bayes>
1

>  <RF_canvas>
1

>  <DNN_canvas>
1

$$$$
CHEMBL1077236
  MOE2015           3D

 90 93  0  0  1  0  0  0  0  0999 V2000
   28.7480   13.2280   21.6410 N   0  0  0  0  0  0  0  0  0  0  0  0
   28.3610   12.6210   20.3830 C   0  0  0  0  0  0  0  0  0  0  0  0
   29.2360   11.3890   20.2810 C   0  0  0  0  0  0  0  0  0  0  0  0
   30.1920   11.6510   19.8110 H   0  0  0  0  0  0  0  0  0  0  0  0
   28.7790   10.5910   19.6890 H   0  0  0  0  0  0  0  0  0  0  0  0
   29.4750   10.9950   21.7260 C   0  0  0  0  0  0  0  0  0  0  0  0
   28.6700   10.3590   22.1090 H   0  0  0  0  0  0  0  0  0  0  0  0
   30.4400   10.5020   21.8620 H   0  0  0  0  0  0  0  0  0  0  0  0
   29.4330   12.3170   22.4510 C   0  0  0  0  0  0  0  0  0  0  0  0
   29.8760   12.4980   23.5740 O   0  0  0  0  0  0  0  0  0  0  0  0
   28.4010   14.6200   22.0330 C   0  0  0  0  0  0  0  0  0  0  0  0
   27.4430   14.6270   23.2990 C   0  0  3  0  0  0  0  0  0  0  0  0
   26.1040   13.8470   23.0520 C   0  0  0  0  0  0  0  0  0  0  0  0
   25.1690   13.7500   24.2850 C   0  0  3  0  0  0  0  0  0  0  0  0
   24.9550   15.1700   24.9220 C   0  0  0  0  0  0  0  0  0  0  0  0
   26.3140   15.8360   25.2740 C   0  0  0  0  0  0  0  0  0  0  0  0
   27.1800   16.0140   23.9880 C   0  0  0  0  0  0  0  0  0  0  0  0
   23.8950   13.0700   23.8410 C   0  0  0  0  0  0  0  0  0  0  0  0
   22.8660   13.7110   23.6470 O   0  0  0  0  0  0  0  0  0  0  0  0
   23.9630   11.7120   23.6640 N   0  0  0  0  0  0  0  0  0  0  0  0
   22.8390   10.8720   23.2340 C   0  0  3  0  0  0  0  0  0  0  0  0
   22.2680   10.0490   24.4240 C   0  0  3  0  0  0  0  0  0  0  0  0
   21.1960    9.2000   23.9890 O   0  0  0  0  0  0  0  0  0  0  0  0
   21.6840   10.9850   25.5160 C   0  0  0  0  0  0  0  0  0  0  0  0
   20.9770   10.2500   26.5880 N   0  3  0  0  0  0  0  0  0  0  0  0
   20.1080   11.0920   27.4660 C   0  0  0  0  0  0  0  0  0  0  0  0
   18.9310   11.7090   26.6690 C   0  0  0  0  0  0  0  0  0  0  0  0
   18.0130   10.8860   25.9770 C   0  0  0  0  0  0  0  0  0  0  0  0
   16.9270   11.4370   25.2410 C   0  0  0  0  0  0  0  0  0  0  0  0
   16.7750   12.8460   25.2140 C   0  0  0  0  0  0  0  0  0  0  0  0
   17.6900   13.6830   25.9060 C   0  0  0  0  0  0  0  0  0  0  0  0
   18.7640   13.1200   26.6330 C   0  0  0  0  0  0  0  0  0  0  0  0
   15.9290   10.5150   24.5000 C   0  0  0  0  0  0  0  0  0  0  0  0
   16.4620   10.1440   23.1010 C   0  0  0  0  0  0  0  0  0  0  0  0
   15.4880    9.2400   25.2660 C   0  0  0  0  0  0  0  0  0  0  0  0
   23.3360    9.9460   22.0730 C   0  0  0  0  0  0  0  0  0  0  0  0
   23.9450   10.6220   20.8300 C   0  0  0  0  0  0  0  0  0  0  0  0
   23.6500   11.9700   20.4590 C   0  0  0  0  0  0  0  0  0  0  0  0
   24.2360   12.5400   19.2980 C   0  0  0  0  0  0  0  0  0  0  0  0
   25.1180   11.7700   18.5040 C   0  0  0  0  0  0  0  0  0  0  0  0
   25.4170   10.4300   18.8640 C   0  0  0  0  0  0  0  0  0  0  0  0
   24.8330    9.8630   20.0240 C   0  0  0  0  0  0  0  0  0  0  0  0
   27.7290   15.4260   20.8510 C   0  0  0  0  0  0  0  0  0  0  0  0
   29.7230   15.4400   22.2650 C   0  0  0  0  0  0  0  0  0  0  0  0
   28.5390   13.2870   19.5360 H   0  0  0  0  0  0  0  0  0  0  0  0
   27.3010   12.3640   20.4450 H   0  0  0  0  0  0  0  0  0  0  0  0
   28.0370   14.0840   24.0340 H   0  0  0  0  0  0  0  0  0  0  0  0
   26.3550   12.8340   22.7370 H   0  0  0  0  0  0  0  0  0  0  0  0
   25.5600   14.3520   22.2530 H   0  0  0  0  0  0  0  0  0  0  0  0
   25.6070   13.1490   25.0810 H   0  0  0  0  0  0  0  0  0  0  0  0
   24.3630   15.0670   25.8310 H   0  0  0  0  0  0  0  0  0  0  0  0
   24.4220   15.8020   24.2120 H   0  0  0  0  0  0  0  0  0  0  0  0
   26.8500   15.2060   25.9840 H   0  0  0  0  0  0  0  0  0  0  0  0
   26.1300   16.8130   25.7220 H   0  0  0  0  0  0  0  0  0  0  0  0
   26.6550   16.6660   23.2900 H   0  0  0  0  0  0  0  0  0  0  0  0
   28.1340   16.4660   24.2590 H   0  0  0  0  0  0  0  0  0  0  0  0
   24.8480   11.2580   23.8420 H   0  0  0  0  0  0  0  0  0  0  0  0
   22.0220   11.4970   22.8730 H   0  0  0  0  0  0  0  0  0  0  0  0
   23.0940    9.4590   24.8220 H   0  0  0  0  0  0  0  0  0  0  0  0
   20.4980    9.7650   23.6490 H   0  0  0  0  0  0  0  0  0  0  0  0
   20.9820   11.6730   25.0450 H   0  0  0  0  0  0  0  0  0  0  0  0
   22.5020   11.5500   25.9630 H   0  0  0  0  0  0  0  0  0  0  0  0
   21.6700    9.8020   27.1700 H   0  0  0  0  0  0  0  0  0  0  0  0
   20.3960    9.5460   26.1550 H   0  0  0  0  0  0  0  0  0  0  0  0
   20.7080   11.8960   27.8930 H   0  0  0  0  0  0  0  0  0  0  0  0
   19.7070   10.4720   28.2680 H   0  0  0  0  0  0  0  0  0  0  0  0
   18.1390    9.8140   26.0080 H   0  0  0  0  0  0  0  0  0  0  0  0
   15.9570   13.2860   24.6630 H   0  0  0  0  0  0  0  0  0  0  0  0
   17.5650   14.7550   25.8770 H   0  0  0  0  0  0  0  0  0  0  0  0
   19.4560   13.7610   27.1600 H   0  0  0  0  0  0  0  0  0  0  0  0
   15.0220   11.1140   24.4160 H   0  0  0  0  0  0  0  0  0  0  0  0
   17.3670    9.5460   23.2040 H   0  0  0  0  0  0  0  0  0  0  0  0
   16.6890   11.0540   22.5460 H   0  0  0  0  0  0  0  0  0  0  0  0
   15.7060    9.5700   22.5650 H   0  0  0  0  0  0  0  0  0  0  0  0
   16.3450    8.5790   25.3940 H   0  0  0  0  0  0  0  0  0  0  0  0
   14.7130    8.7250   24.6980 H   0  0  0  0  0  0  0  0  0  0  0  0
   15.0960    9.5210   26.2440 H   0  0  0  0  0  0  0  0  0  0  0  0
   22.4820    9.3570   21.7380 H   0  0  0  0  0  0  0  0  0  0  0  0
   24.0950    9.2830   22.4880 H   0  0  0  0  0  0  0  0  0  0  0  0
   22.9770   12.5590   21.0650 H   0  0  0  0  0  0  0  0  0  0  0  0
   24.0090   13.5590   19.0220 H   0  0  0  0  0  0  0  0  0  0  0  0
   25.5650   12.2030   17.6210 H   0  0  0  0  0  0  0  0  0  0  0  0
   26.0890    9.8430   18.2550 H   0  0  0  0  0  0  0  0  0  0  0  0
   25.0660    8.8440   20.2970 H   0  0  0  0  0  0  0  0  0  0  0  0
   26.7830   14.9560   20.5830 H   0  0  0  0  0  0  0  0  0  0  0  0
   28.3930   15.4250   19.9870 H   0  0  0  0  0  0  0  0  0  0  0  0
   27.5480   16.4530   21.1680 H   0  0  0  0  0  0  0  0  0  0  0  0
   30.2960   14.9840   23.0720 H   0  0  0  0  0  0  0  0  0  0  0  0
   29.4720   16.4660   22.5330 H   0  0  0  0  0  0  0  0  0  0  0  0
   30.3170   15.4380   21.3510 H   0  0  0  0  0  0  0  0  0  0  0  0
  1  2  1  0  0  0  0
  1  9  1  0  0  0  0
  1 11  1  0  0  0  0
  2  3  1  0  0  0  0
  2 45  1  0  0  0  0
  2 46  1  0  0  0  0
  3  4  1  0  0  0  0
  3  5  1  0  0  0  0
  3  6  1  0  0  0  0
  6  7  1  0  0  0  0
  6  8  1  0  0  0  0
  6  9  1  0  0  0  0
  9 10  2  0  0  0  0
 11 12  1  0  0  0  0
 11 43  1  0  0  0  0
 11 44  1  0  0  0  0
 12 13  1  0  0  0  0
 12 17  1  0  0  0  0
 12 47  1  0  0  0  0
 13 14  1  0  0  0  0
 13 48  1  0  0  0  0
 13 49  1  0  0  0  0
 14 15  1  0  0  0  0
 14 18  1  0  0  0  0
 14 50  1  0  0  0  0
 15 16  1  0  0  0  0
 15 51  1  0  0  0  0
 15 52  1  0  0  0  0
 16 17  1  0  0  0  0
 16 53  1  0  0  0  0
 16 54  1  0  0  0  0
 17 55  1  0  0  0  0
 17 56  1  0  0  0  0
 18 19  2  0  0  0  0
 18 20  1  0  0  0  0
 20 21  1  0  0  0  0
 20 57  1  0  0  0  0
 21 22  1  0  0  0  0
 21 36  1  0  0  0  0
 21 58  1  0  0  0  0
 22 23  1  0  0  0  0
 22 24  1  0  0  0  0
 22 59  1  0  0  0  0
 23 60  1  0  0  0  0
 24 25  1  0  0  0  0
 24 61  1  0  0  0  0
 24 62  1  0  0  0  0
 25 26  1  0  0  0  0
 25 63  1  0  0  0  0
 25 64  1  0  0  0  0
 26 27  1  0  0  0  0
 26 65  1  0  0  0  0
 26 66  1  0  0  0  0
 27 28  1  0  0  0  0
 27 32  2  0  0  0  0
 28 29  2  0  0  0  0
 28 67  1  0  0  0  0
 29 30  1  0  0  0  0
 29 33  1  0  0  0  0
 30 31  2  0  0  0  0
 30 68  1  0  0  0  0
 31 32  1  0  0  0  0
 31 69  1  0  0  0  0
 32 70  1  0  0  0  0
 33 34  1  0  0  0  0
 33 35  1  0  0  0  0
 33 71  1  0  0  0  0
 34 72  1  0  0  0  0
 34 73  1  0  0  0  0
 34 74  1  0  0  0  0
 35 75  1  0  0  0  0
 35 76  1  0  0  0  0
 35 77  1  0  0  0  0
 36 37  1  0  0  0  0
 36 78  1  0  0  0  0
 36 79  1  0  0  0  0
 37 38  1  0  0  0  0
 37 42  2  0  0  0  0
 38 39  2  0  0  0  0
 38 80  1  0  0  0  0
 39 40  1  0  0  0  0
 39 81  1  0  0  0  0
 40 41  2  0  0  0  0
 40 82  1  0  0  0  0
 41 42  1  0  0  0  0
 41 83  1  0  0  0  0
 42 84  1  0  0  0  0
 43 85  1  0  0  0  0
 43 86  1  0  0  0  0
 43 87  1  0  0  0  0
 44 88  1  0  0  0  0
 44 89  1  0  0  0  0
 44 90  1  0  0  0  0
M  CHG  1  25   1
M  END
>  <PARENT_CMPD_ID>
CHEMBL1077236

>  <STANDARD_TYPE>
IC50

>  <RELATION>
=

>  <STANDARD_VALUE>
25

>  <STANDARD_UNITS>
nM

>  <COMPOUND_KEY>
24

>  <PUBMED_ID>
20172717

>  <JOURNAL>
Bioorg. Med. Chem. Lett.

>  <YEAR>
2010

>  <VOLUME>
20

>  <FIRST_PAGE>
1924

>  <Company>
UMontreal_Canada

>  <idx>
547

>  <Model>
Valid

>  <target>
7.6020598

>  <des_pred_mlr>
7.2062802

>  <RF_Canvas>
7.6174607

>  <DNN_Canvas>
7.6272445

>  <pred_CoMFA>
7.3789001

>  <pred_COMSIA>
7.4726

>  <pred_abm5>
7.7478552

>  <pred_ff8>
7.5819149

>  <pred_gau6>
7.3943496

>  <CID>
BACE_547

>  <active>
1

>  <des_class_bayes>
1

>  <maacs_class_bayes>
0

>  <radial_class_bayes>
0

>  <dend_class_bayes>
1

>  <molprint_class_bayes>
1

>  <RF_canvas>
1

>  <DNN_canvas>
1

$$$$
CHEMBL1210352
  MOE2015           3D

 75 78  0  0  1  0  0  0  0  0999 V2000
   20.2640   11.1570   26.8570 C   0  0  0  0  0  0  0  0  0  0  0  0
   21.2670   10.3660   26.1000 N   0  3  0  0  0  0  0  0  0  0  0  0
   21.8970   11.1270   25.0050 C   0  0  0  0  0  0  0  0  0  0  0  0
   22.4530   10.1390   23.9780 C   0  0  3  0  0  0  0  0  0  0  0  0
   21.3320    9.3440   23.5740 O   0  0  0  0  0  0  0  0  0  0  0  0
   23.1060   10.8440   22.7960 C   0  0  3  0  0  0  0  0  0  0  0  0
   23.4280    9.8950   21.6440 C   0  0  0  0  0  0  0  0  0  0  0  0
   24.3110   10.5370   20.6000 C   0  0  0  0  0  0  0  0  0  0  0  0
   23.9700   11.7390   19.9960 C   0  0  0  0  0  0  0  0  0  0  0  0
   24.8050   12.3030   19.0450 C   0  0  0  0  0  0  0  0  0  0  0  0
   25.9840   11.6730   18.6870 C   0  0  0  0  0  0  0  0  0  0  0  0
   26.3250   10.4770   19.2830 C   0  0  0  0  0  0  0  0  0  0  0  0
   25.4930    9.9130   20.2330 C   0  0  0  0  0  0  0  0  0  0  0  0
   24.3240   11.5430   23.2230 N   0  0  0  0  0  0  0  0  0  0  0  0
   24.3340   12.9010   23.3860 C   0  0  0  0  0  0  0  0  0  0  0  0
   23.3260   13.6080   23.3880 O   0  0  0  0  0  0  0  0  0  0  0  0
   25.6870   13.4610   23.5640 C   0  0  0  0  0  0  0  0  0  0  0  0
   26.7520   12.9530   22.8410 C   0  0  0  0  0  0  0  0  0  0  0  0
   28.0260   13.4740   23.0230 C   0  0  0  0  0  0  0  0  0  0  0  0
   28.2310   14.5110   23.9240 C   0  0  0  0  0  0  0  0  0  0  0  0
   27.1480   15.0100   24.6360 C   0  0  0  0  0  0  0  0  0  0  0  0
   25.8780   14.4890   24.4640 C   0  0  0  0  0  0  0  0  0  0  0  0
   27.2970   16.0860   25.5750 N   0  0  0  0  0  0  0  0  0  0  0  0
   26.4820   17.2510   25.3990 C   0  0  0  0  0  0  0  0  0  0  0  0
   26.6630   18.0220   24.2710 C   0  0  0  0  0  0  0  0  0  0  0  0
   25.8640   19.1370   24.1070 C   0  0  0  0  0  0  0  0  0  0  0  0
   24.9250   19.4590   25.0620 C   0  0  0  0  0  0  0  0  0  0  0  0
   24.3120   20.3380   24.9290 H   0  0  0  0  0  0  0  0  0  0  0  0
   24.7560   18.6790   26.1830 N   0  0  0  0  0  0  0  0  0  0  0  0
   25.5390   17.5590   26.3600 C   0  0  0  0  0  0  0  0  0  0  0  0
   25.4180   16.9340   27.2330 H   0  0  0  0  0  0  0  0  0  0  0  0
   28.6320   16.2090   26.6040 S   0  0  0  0  0  0  0  0  0  0  0  0
   29.7320   17.2750   25.7120 C   0  0  0  0  0  0  0  0  0  0  0  0
   29.2570   14.9140   26.6820 O   0  0  0  0  0  0  0  0  0  0  0  0
   28.2360   16.9430   27.7840 O   0  0  0  0  0  0  0  0  0  0  0  0
   19.7950   10.5010   27.5910 H   0  0  0  0  0  0  0  0  0  0  0  0
   20.7560   11.9990   27.3440 H   0  0  0  0  0  0  0  0  0  0  0  0
   20.8080    9.5570   25.7070 H   0  0  0  0  0  0  0  0  0  0  0  0
   21.9890   10.0660   26.7400 H   0  0  0  0  0  0  0  0  0  0  0  0
   22.7070   11.7380   25.4020 H   0  0  0  0  0  0  0  0  0  0  0  0
   21.1550   11.7700   24.5310 H   0  0  0  0  0  0  0  0  0  0  0  0
   23.2470    9.5260   24.4060 H   0  0  0  0  0  0  0  0  0  0  0  0
   20.6720    9.9370   23.2080 H   0  0  0  0  0  0  0  0  0  0  0  0
   22.3790   11.5660   22.4250 H   0  0  0  0  0  0  0  0  0  0  0  0
   22.4950    9.5870   21.1720 H   0  0  0  0  0  0  0  0  0  0  0  0
   23.9390    9.0190   22.0440 H   0  0  0  0  0  0  0  0  0  0  0  0
   23.0510   12.2360   20.2680 H   0  0  0  0  0  0  0  0  0  0  0  0
   24.5340   13.2400   18.5800 H   0  0  0  0  0  0  0  0  0  0  0  0
   26.6330   12.1150   17.9460 H   0  0  0  0  0  0  0  0  0  0  0  0
   27.2430    9.9800   19.0070 H   0  0  0  0  0  0  0  0  0  0  0  0
   25.7670    8.9760   20.6940 H   0  0  0  0  0  0  0  0  0  0  0  0
   25.1660   11.0140   23.3990 H   0  0  0  0  0  0  0  0  0  0  0  0
   26.5920   12.1510   22.1350 H   0  0  0  0  0  0  0  0  0  0  0  0
   28.8580   13.0730   22.4640 H   0  0  0  0  0  0  0  0  0  0  0  0
   29.2190   14.9230   24.0690 H   0  0  0  0  0  0  0  0  0  0  0  0
   25.0450   14.8830   25.0280 H   0  0  0  0  0  0  0  0  0  0  0  0
   27.4090   17.7620   23.5350 H   0  0  0  0  0  0  0  0  0  0  0  0
   25.9760   19.7570   23.2290 H   0  0  0  0  0  0  0  0  0  0  0  0
   30.0680   16.7730   24.8040 H   0  0  0  0  0  0  0  0  0  0  0  0
   30.5940   17.5120   26.3360 H   0  0  0  0  0  0  0  0  0  0  0  0
   29.2110   18.1950   25.4470 H   0  0  0  0  0  0  0  0  0  0  0  0
   17.3570   12.6670   24.3100 C   0  0  0  0  0  0  0  0  0  0  0  0
   16.5950   13.0610   23.6420 H   0  0  0  0  0  0  0  0  0  0  0  0
   17.4060   11.2990   24.5790 C   0  0  0  0  0  0  0  0  0  0  0  0
   16.6820   10.6280   24.1210 H   0  0  0  0  0  0  0  0  0  0  0  0
   18.3830   10.7910   25.4350 C   0  0  0  0  0  0  0  0  0  0  0  0
   18.4210    9.7260   25.6450 H   0  0  0  0  0  0  0  0  0  0  0  0
   19.3110   11.6520   26.0220 C   0  0  0  0  0  0  0  0  0  0  0  0
   19.2620   13.0190   25.7530 C   0  0  0  0  0  0  0  0  0  0  0  0
   19.9850   13.6900   26.2100 H   0  0  0  0  0  0  0  0  0  0  0  0
   18.2850   13.5270   24.8960 C   0  0  0  0  0  0  0  0  0  0  0  0
   18.2320   14.9840   24.6090 C   0  0  0  0  0  0  0  0  0  0  0  0
   17.2050   15.2410   23.7560 F   0  0  0  0  0  0  0  0  0  0  0  0
   19.4030   15.3770   24.0400 F   0  0  0  0  0  0  0  0  0  0  0  0
   18.0400   15.6680   25.7690 F   0  0  0  0  0  0  0  0  0  0  0  0
  1  2  1  0  0  0  0
  1 36  1  0  0  0  0
  1 37  1  0  0  0  0
  1 68  1  0  0  0  0
  2  3  1  0  0  0  0
  2 38  1  0  0  0  0
  2 39  1  0  0  0  0
  3  4  1  0  0  0  0
  3 40  1  0  0  0  0
  3 41  1  0  0  0  0
  4  5  1  0  0  0  0
  4  6  1  0  0  0  0
  4 42  1  0  0  0  0
  5 43  1  0  0  0  0
  6  7  1  0  0  0  0
  6 14  1  0  0  0  0
  6 44  1  0  0  0  0
  7  8  1  0  0  0  0
  7 45  1  0  0  0  0
  7 46  1  0  0  0  0
  8  9  1  0  0  0  0
  8 13  2  0  0  0  0
  9 10  2  0  0  0  0
  9 47  1  0  0  0  0
 10 11  1  0  0  0  0
 10 48  1  0  0  0  0
 11 12  2  0  0  0  0
 11 49  1  0  0  0  0
 12 13  1  0  0  0  0
 12 50  1  0  0  0  0
 13 51  1  0  0  0  0
 14 15  1  0  0  0  0
 14 52  1  0  0  0  0
 15 16  2  0  0  0  0
 15 17  1  0  0  0  0
 17 18  1  0  0  0  0
 17 22  2  0  0  0  0
 18 19  2  0  0  0  0
 18 53  1  0  0  0  0
 19 20  1  0  0  0  0
 19 54  1  0  0  0  0
 20 21  2  0  0  0  0
 20 55  1  0  0  0  0
 21 22  1  0  0  0  0
 21 23  1  0  0  0  0
 22 56  1  0  0  0  0
 23 24  1  0  0  0  0
 23 32  1  0  0  0  0
 24 25  1  0  0  0  0
 24 30  2  0  0  0  0
 25 26  2  0  0  0  0
 25 57  1  0  0  0  0
 26 27  1  0  0  0  0
 26 58  1  0  0  0  0
 27 28  1  0  0  0  0
 27 29  2  0  0  0  0
 29 30  1  0  0  0  0
 30 31  1  0  0  0  0
 32 33  1  0  0  0  0
 32 34  2  0  0  0  0
 32 35  2  0  0  0  0
 33 59  1  0  0  0  0
 33 60  1  0  0  0  0
 33 61  1  0  0  0  0
 62 63  1  0  0  0  0
 62 64  1  0  0  0  0
 62 71  2  0  0  0  0
 64 65  1  0  0  0  0
 64 66  2  0  0  0  0
 66 67  1  0  0  0  0
 66 68  1  0  0  0  0
 68 69  2  0  0  0  0
 69 70  1  0  0  0  0
 69 71  1  0  0  0  0
 71 72  1  0  0  0  0
 72 73  1  0  0  0  0
 72 74  1  0  0  0  0
 72 75  1  0  0  0  0
M  CHG  1   2   1
M  END
>  <PARENT_CMPD_ID>
CHEMBL1210352

>  <STANDARD_TYPE>
IC50

>  <RELATION>
=

>  <STANDARD_VALUE>
25

>  <STANDARD_UNITS>
nM

>  <COMPOUND_KEY>
31

>  <PUBMED_ID>
20579874

>  <JOURNAL>
Bioorg. Med. Chem. Lett.

>  <YEAR>
2010

>  <VOLUME>
20

>  <FIRST_PAGE>
4639

>  <Company>
GSK

>  <idx>
548

>  <Model>
Valid

>  <target>
7.6020598

>  <des_pred_mlr>
7.3333602

>  <RF_Canvas>
7.7043209

>  <DNN_Canvas>
7.5990543

>  <pred_CoMFA>
6.7880998

>  <pred_COMSIA>
7.6104999

>  <pred_abm5>
7.0880585

>  <pred_ff8>
7.9501038

>  <pred_gau6>
7.0909562

>  <CID>
BACE_548

>  <active>
1

>  <des_class_bayes>
1

>  <maacs_class_bayes>
1

>  <radial_class_bayes>
1

>  <dend_class_bayes>
1

>  <molprint_class_bayes>
1

>  <RF_canvas>
1

>  <DNN_canvas>
1

$$$$
CHEMBL1916002
  MOE2015           3D

 82 85  0  0  1  0  0  0  0  0999 V2000
   25.1250   20.4600   25.3770 C   0  0  0  0  0  0  0  0  0  0  0  0
   25.0110   21.5340   25.3990 H   0  0  0  0  0  0  0  0  0  0  0  0
   24.5530   19.6790   26.3820 C   0  0  0  0  0  0  0  0  0  0  0  0
   23.9970   20.1390   27.1860 H   0  0  0  0  0  0  0  0  0  0  0  0
   25.8500   19.8520   24.3350 C   0  0  0  0  0  0  0  0  0  0  0  0
   26.2880   20.4650   23.5610 H   0  0  0  0  0  0  0  0  0  0  0  0
   24.7120   18.2920   26.3300 C   0  0  0  0  0  0  0  0  0  0  0  0
   24.2700   17.6760   27.0990 H   0  0  0  0  0  0  0  0  0  0  0  0
   26.0110   18.4630   24.2890 C   0  0  0  0  0  0  0  0  0  0  0  0
   26.5700   17.9990   23.4900 H   0  0  0  0  0  0  0  0  0  0  0  0
   23.1870   11.8460   20.3250 C   0  0  0  0  0  0  0  0  0  0  0  0
   22.2260   12.1450   20.7180 H   0  0  0  0  0  0  0  0  0  0  0  0
   25.1040   10.4330   20.3920 C   0  0  0  0  0  0  0  0  0  0  0  0
   25.6580    9.6180   20.8340 H   0  0  0  0  0  0  0  0  0  0  0  0
   24.9360   12.1640   18.6930 C   0  0  0  0  0  0  0  0  0  0  0  0
   25.3360   12.6830   17.8350 H   0  0  0  0  0  0  0  0  0  0  0  0
   25.4350   17.6910   25.2960 C   0  0  0  0  0  0  0  0  0  0  0  0
   23.8700   10.7920   20.9260 C   0  0  0  0  0  0  0  0  0  0  0  0
   23.7120   12.5220   19.2320 C   0  0  0  0  0  0  0  0  0  0  0  0
   25.6390   11.1160   19.2860 C   0  0  0  0  0  0  0  0  0  0  0  0
   27.1750   13.4880   23.6660 C   0  0  0  0  0  0  0  0  0  0  0  0
   23.6640   13.1990   23.8080 C   0  0  0  0  0  0  0  0  0  0  0  0
   27.2350   14.1150   21.3400 C   0  0  0  0  0  0  0  0  0  0  0  0
   27.5580   15.1550   21.2900 H   0  0  0  0  0  0  0  0  0  0  0  0
   27.3370   13.6550   20.3570 H   0  0  0  0  0  0  0  0  0  0  0  0
   20.4890   11.9020   25.1990 C   0  0  0  0  0  0  0  0  0  0  0  0
   20.8500   12.9300   25.1550 H   0  0  0  0  0  0  0  0  0  0  0  0
   20.0890   11.6150   24.2260 H   0  0  0  0  0  0  0  0  0  0  0  0
   25.8080   13.9890   21.8800 C   0  0  0  0  0  0  0  0  0  0  0  0
   25.3190   13.1130   21.4530 H   0  0  0  0  0  0  0  0  0  0  0  0
   25.2320   14.8820   21.6350 H   0  0  0  0  0  0  0  0  0  0  0  0
   20.1540   11.0320   27.3770 C   0  0  0  0  0  0  0  0  0  0  0  0
   19.4610   10.5130   28.0390 H   0  0  0  0  0  0  0  0  0  0  0  0
   20.7690   11.7180   27.9600 H   0  0  0  0  0  0  0  0  0  0  0  0
   19.4070   11.7700   26.2720 C   0  0  3  0  0  0  0  0  0  0  0  0
   18.9960   12.7350   26.5670 H   0  0  0  0  0  0  0  0  0  0  0  0
   18.2480   11.0690   25.8520 O   0  0  0  0  0  0  0  0  0  0  0  0
   18.5240   10.1940   25.5710 H   0  0  0  0  0  0  0  0  0  0  0  0
   21.6380   10.9530   25.6010 C   0  0  3  0  0  0  0  0  0  0  0  0
   22.4980   11.5110   25.9720 H   0  0  0  0  0  0  0  0  0  0  0  0
   27.9980   13.3320   22.4170 C   0  0  3  0  0  0  0  0  0  0  0  0
   29.0320   13.6410   22.5690 H   0  0  0  0  0  0  0  0  0  0  0  0
   25.5880   16.1920   25.2840 C   0  0  0  0  0  0  0  0  0  0  0  0
   25.5430   15.8240   26.3090 H   0  0  0  0  0  0  0  0  0  0  0  0
   26.5550   15.9390   24.8500 H   0  0  0  0  0  0  0  0  0  0  0  0
   23.2770   10.0620   22.1220 C   0  0  0  0  0  0  0  0  0  0  0  0
   24.0490    9.4200   22.5450 H   0  0  0  0  0  0  0  0  0  0  0  0
   22.4480    9.4490   21.7690 H   0  0  0  0  0  0  0  0  0  0  0  0
   27.8650   11.8720   21.9640 C   0  0  0  0  0  0  0  0  0  0  0  0
   27.0780   11.8930   20.6780 C   0  0  0  0  0  0  0  0  0  0  0  0
   26.9540   10.8740   20.3110 H   0  0  0  0  0  0  0  0  0  0  0  0
   27.8170   12.7110   19.6490 C   0  0  0  0  0  0  0  0  0  0  0  0
   27.2490   12.7260   18.7200 H   0  0  0  0  0  0  0  0  0  0  0  0
   29.1730   12.0990   19.3990 C   0  0  0  0  0  0  0  0  0  0  0  0
   29.7070   12.6900   18.6560 H   0  0  0  0  0  0  0  0  0  0  0  0
   29.0490   11.0800   19.0330 H   0  0  0  0  0  0  0  0  0  0  0  0
   29.7420   12.0840   20.3290 H   0  0  0  0  0  0  0  0  0  0  0  0
   27.9410   13.7300   20.0160 H   0  0  0  0  0  0  0  0  0  0  0  0
   26.0980   12.3350   20.8580 H   0  0  0  0  0  0  0  0  0  0  0  0
   27.2880   11.3610   22.7350 H   0  0  0  0  0  0  0  0  0  0  0  0
   28.8250   11.3780   21.8150 H   0  0  0  0  0  0  0  0  0  0  0  0
   24.4840   15.5150   24.4650 C   0  0  0  0  0  0  0  0  0  0  0  0
   24.4070   15.9970   23.4900 H   0  0  0  0  0  0  0  0  0  0  0  0
   23.5340   15.6050   24.9910 H   0  0  0  0  0  0  0  0  0  0  0  0
   24.8240   14.0400   24.2780 C   0  0  3  0  0  0  0  0  0  0  0  0
   25.1090   13.7090   25.2770 H   0  0  0  0  0  0  0  0  0  0  0  0
   22.2260   10.1380   24.4290 C   0  0  3  0  0  0  0  0  0  0  0  0
   23.1120    9.6280   24.8060 H   0  0  0  0  0  0  0  0  0  0  0  0
   22.7500   10.9840   23.2440 C   0  0  3  0  0  0  0  0  0  0  0  0
   21.9310   11.5870   22.8520 H   0  0  0  0  0  0  0  0  0  0  0  0
   21.0040   10.0590   26.6180 N   0  3  0  0  0  0  0  0  0  0  0  0
   20.4440    9.3410   26.1810 H   0  0  0  0  0  0  0  0  0  0  0  0
   21.6960    9.6290   27.2150 H   0  0  0  0  0  0  0  0  0  0  0  0
   25.9260   13.8440   23.3410 N   0  0  0  0  0  0  0  0  0  0  0  0
   23.8270   11.8630   23.7040 N   0  0  0  0  0  0  0  0  0  0  0  0
   24.7190   11.4580   23.9510 H   0  0  0  0  0  0  0  0  0  0  0  0
   27.5680   13.2710   24.7900 O   0  0  0  0  0  0  0  0  0  0  0  0
   22.5950   13.7100   23.5250 O   0  0  0  0  0  0  0  0  0  0  0  0
   21.2320    9.2070   23.9900 O   0  0  0  0  0  0  0  0  0  0  0  0
   20.4810    9.7130   23.6710 H   0  0  0  0  0  0  0  0  0  0  0  0
   23.0210   13.5220   18.6820 F   0  0  0  0  0  0  0  0  0  0  0  0
   26.8390   10.7710   18.7780 F   0  0  0  0  0  0  0  0  0  0  0  0
  1  2  1  0  0  0  0
  1  3  2  0  0  0  0
  1  5  1  0  0  0  0
  3  4  1  0  0  0  0
  3  7  1  0  0  0  0
  5  6  1  0  0  0  0
  5  9  2  0  0  0  0
  7  8  1  0  0  0  0
  7 17  2  0  0  0  0
  9 10  1  0  0  0  0
  9 17  1  0  0  0  0
 11 12  1  0  0  0  0
 11 18  2  0  0  0  0
 11 19  1  0  0  0  0
 13 14  1  0  0  0  0
 13 18  1  0  0  0  0
 13 20  2  0  0  0  0
 15 16  1  0  0  0  0
 15 19  2  0  0  0  0
 15 20  1  0  0  0  0
 17 43  1  0  0  0  0
 18 46  1  0  0  0  0
 19 81  1  0  0  0  0
 20 82  1  0  0  0  0
 21 41  1  0  0  0  0
 21 74  1  0  0  0  0
 21 77  2  0  0  0  0
 22 65  1  0  0  0  0
 22 75  1  0  0  0  0
 22 78  2  0  0  0  0
 23 24  1  0  0  0  0
 23 25  1  0  0  0  0
 23 29  1  0  0  0  0
 23 41  1  0  0  0  0
 26 27  1  0  0  0  0
 26 28  1  0  0  0  0
 26 35  1  0  0  0  0
 26 39  1  0  0  0  0
 29 30  1  0  0  0  0
 29 31  1  0  0  0  0
 29 74  1  0  0  0  0
 32 33  1  0  0  0  0
 32 34  1  0  0  0  0
 32 35  1  0  0  0  0
 32 71  1  0  0  0  0
 35 36  1  0  0  0  0
 35 37  1  0  0  0  0
 37 38  1  0  0  0  0
 39 40  1  0  0  0  0
 39 67  1  0  0  0  0
 39 71  1  0  0  0  0
 41 42  1  0  0  0  0
 41 49  1  0  0  0  0
 43 44  1  0  0  0  0
 43 45  1  0  0  0  0
 43 62  1  0  0  0  0
 46 47  1  0  0  0  0
 46 48  1  0  0  0  0
 46 69  1  0  0  0  0
 49 50  1  0  0  0  0
 49 60  1  0  0  0  0
 49 61  1  0  0  0  0
 50 51  1  0  0  0  0
 50 52  1  0  0  0  0
 50 59  1  0  0  0  0
 52 53  1  0  0  0  0
 52 54  1  0  0  0  0
 52 58  1  0  0  0  0
 54 55  1  0  0  0  0
 54 56  1  0  0  0  0
 54 57  1  0  0  0  0
 62 63  1  0  0  0  0
 62 64  1  0  0  0  0
 62 65  1  0  0  0  0
 65 66  1  0  0  0  0
 65 74  1  0  0  0  0
 67 68  1  0  0  0  0
 67 69  1  0  0  0  0
 67 79  1  0  0  0  0
 69 70  1  0  0  0  0
 69 75  1  0  0  0  0
 71 72  1  0  0  0  0
 71 73  1  0  0  0  0
 75 76  1  0  0  0  0
 79 80  1  0  0  0  0
M  CHG  1  71   1
M  END
>  <PARENT_CMPD_ID>
CHEMBL1916002

>  <STANDARD_TYPE>
IC50

>  <RELATION>
=

>  <STANDARD_VALUE>
25

>  <STANDARD_UNITS>
nM

>  <COMPOUND_KEY>
28m

>  <PUBMED_ID>
21782431

>  <JOURNAL>
Bioorg.Med.Chem.Lett.

>  <YEAR>
2011

>  <VOLUME>
21

>  <FIRST_PAGE>
6916

>  <Company>
BMS

>  <idx>
549

>  <Model>
Valid

>  <target>
7.6020598

>  <des_pred_mlr>
6.9724898

>  <RF_Canvas>
7.2075162

>  <DNN_Canvas>
7.2563648

>  <pred_CoMFA>
7.1311998

>  <pred_COMSIA>
6.3892999

>  <pred_abm5>
7.3346033

>  <pred_ff8>
7.881093

>  <pred_gau6>
7.1472096

>  <CID>
BACE_549

>  <active>
1

>  <des_class_bayes>
1

>  <maacs_class_bayes>
1

>  <radial_class_bayes>
0

>  <dend_class_bayes>
1

>  <molprint_class_bayes>
1

>  <RF_canvas>
1

>  <DNN_canvas>
1

$$$$
22380629_60d
  MOE2015           3D
HYDROLASE/HYDROLASE INHIBITOR
 71 74  0  0  1  0  0  0  0  0999 V2000
   28.4660   12.5800   19.9650 C   0  0  0  0  0  0  0  0  0  0  0  0
   29.0510   12.6910   19.0440 H   0  0  0  0  0  0  0  0  0  0  0  0
   27.6220   11.4110   19.8470 O   0  0  0  0  0  0  0  0  0  0  0  0
   26.2580   11.5250   19.9070 C   0  0  0  0  0  0  0  0  0  0  0  0
   25.5100   12.2620   18.9920 C   0  0  0  0  0  0  0  0  0  0  0  0
   24.1200   12.2290   19.1340 C   0  0  0  0  0  0  0  0  0  0  0  0
   23.4860   11.4810   20.1220 C   0  0  0  0  0  0  0  0  0  0  0  0
   22.4020   11.5020   20.1740 H   0  0  0  0  0  0  0  0  0  0  0  0
   24.2380   10.7320   21.0230 C   0  0  0  0  0  0  0  0  0  0  0  0
   25.6280   10.7530   20.8930 C   0  0  0  0  0  0  0  0  0  0  0  0
   26.2510   10.1710   21.5700 H   0  0  0  0  0  0  0  0  0  0  0  0
   23.5800    9.9620   22.1440 C   0  0  0  0  0  0  0  0  0  0  0  0
   24.3130    9.2980   22.6210 H   0  0  0  0  0  0  0  0  0  0  0  0
   22.8200    9.3040   21.7050 H   0  0  0  0  0  0  0  0  0  0  0  0
   22.9430   10.8750   23.2080 C   0  0  3  0  0  0  0  0  0  0  0  0
   22.1600   11.4540   22.6990 H   0  0  0  0  0  0  0  0  0  0  0  0
   22.2520   10.0850   24.3520 C   0  0  3  0  0  0  0  0  0  0  0  0
   22.9920    9.4650   24.8710 H   0  0  0  0  0  0  0  0  0  0  0  0
   21.5380   11.0130   25.3690 C   0  0  3  0  0  0  0  0  0  0  0  0
   20.7290   11.5280   24.8400 H   0  0  0  0  0  0  0  0  0  0  0  0
   22.4620   11.9980   26.0510 C   0  0  0  0  0  0  0  0  0  0  0  0
   23.2650   11.4970   26.6010 H   0  0  0  0  0  0  0  0  0  0  0  0
   21.9270   12.6560   26.7420 H   0  0  0  0  0  0  0  0  0  0  0  0
   23.2090   13.0450   24.8330 S   0  0  0  0  0  0  0  0  0  0  0  0
   23.9800   11.8430   23.7840 C   0  0  0  0  0  0  0  0  0  0  0  0
   24.4830   12.4290   23.0100 H   0  0  0  0  0  0  0  0  0  0  0  0
   24.7430   11.3220   24.3720 H   0  0  0  0  0  0  0  0  0  0  0  0
   24.2420   13.8260   25.4710 O   0  0  0  0  0  0  0  0  0  0  0  0
   22.1580   13.6790   24.0680 O   0  0  0  0  0  0  0  0  0  0  0  0
   20.8660   10.1190   26.3970 N   0  3  0  0  0  0  0  0  0  0  0  0
   21.5610    9.6340   26.9800 H   0  0  0  0  0  0  0  0  0  0  0  0
   20.4260    9.3690   25.8340 H   0  0  0  0  0  0  0  0  0  0  0  0
   19.8230   10.7420   27.2730 C   0  0  0  0  0  0  0  0  0  0  0  0
   20.3440   11.4230   27.9530 H   0  0  0  0  0  0  0  0  0  0  0  0
   19.4140    9.9290   27.8840 H   0  0  0  0  0  0  0  0  0  0  0  0
   18.7170   11.4300   26.5300 C   0  0  0  0  0  0  0  0  0  0  0  0
   17.8010   10.6890   25.7760 C   0  0  0  0  0  0  0  0  0  0  0  0
   17.8910    9.6040   25.7640 H   0  0  0  0  0  0  0  0  0  0  0  0
   16.7790   11.2980   25.0330 C   0  0  0  0  0  0  0  0  0  0  0  0
   16.7120   12.6910   25.0700 C   0  0  0  0  0  0  0  0  0  0  0  0
   15.9550   13.2380   24.5130 H   0  0  0  0  0  0  0  0  0  0  0  0
   17.6110   13.4420   25.8200 C   0  0  0  0  0  0  0  0  0  0  0  0
   17.5310   14.5260   25.8290 H   0  0  0  0  0  0  0  0  0  0  0  0
   18.6070   12.8160   26.5490 C   0  0  0  0  0  0  0  0  0  0  0  0
   19.2980   13.4300   27.1240 H   0  0  0  0  0  0  0  0  0  0  0  0
   15.8100   10.4440   24.2140 C   0  0  0  0  0  0  0  0  0  0  0  0
   15.1570    9.3780   25.1060 C   0  0  0  0  0  0  0  0  0  0  0  0
   14.6410    9.8350   25.9590 H   0  0  0  0  0  0  0  0  0  0  0  0
   15.8810    8.6610   25.5080 H   0  0  0  0  0  0  0  0  0  0  0  0
   14.4160    8.7910   24.5490 H   0  0  0  0  0  0  0  0  0  0  0  0
   14.6670   11.2420   23.5690 C   0  0  0  0  0  0  0  0  0  0  0  0
   14.0670   11.7700   24.3200 H   0  0  0  0  0  0  0  0  0  0  0  0
   13.9840   10.5850   23.0160 H   0  0  0  0  0  0  0  0  0  0  0  0
   15.0410   11.9820   22.8520 H   0  0  0  0  0  0  0  0  0  0  0  0
   16.5790    9.7510   23.0830 C   0  0  0  0  0  0  0  0  0  0  0  0
   17.3590    9.0800   23.4620 H   0  0  0  0  0  0  0  0  0  0  0  0
   17.0690   10.4820   22.4290 H   0  0  0  0  0  0  0  0  0  0  0  0
   15.9110    9.1440   22.4590 H   0  0  0  0  0  0  0  0  0  0  0  0
   21.2410    9.2020   23.8560 O   0  0  0  0  0  0  0  0  0  0  0  0
   20.8020    9.6050   23.0820 H   0  0  0  0  0  0  0  0  0  0  0  0
   23.3610   12.9310   18.2850 F   0  0  0  0  0  0  0  0  0  0  0  0
   26.0980   12.9930   17.9730 N   0  0  0  0  0  0  0  0  0  0  0  0
   25.5180   13.5880   17.3920 H   0  0  0  0  0  0  0  0  0  0  0  0
   27.0860   12.9240   17.7810 H   0  0  0  0  0  0  0  0  0  0  0  0
   27.9910   13.9360   20.5170 C   0  0  0  0  0  0  0  0  0  0  0  0
   28.6280   13.6830   21.7840 O   0  0  0  0  0  0  0  0  0  0  0  0
   29.3550   12.5730   21.2120 C   0  0  0  0  0  0  0  0  0  0  0  0
   29.2850   11.6800   21.8410 H   0  0  0  0  0  0  0  0  0  0  0  0
   30.4070   12.8240   21.0440 H   0  0  0  0  0  0  0  0  0  0  0  0
   28.4190   14.8150   20.0220 H   0  0  0  0  0  0  0  0  0  0  0  0
   26.9170   14.0860   20.6430 H   0  0  0  0  0  0  0  0  0  0  0  0
  1  2  1  0  0  0  0
  1  3  1  0  0  0  0
  1 65  1  0  0  0  0
  1 67  1  0  0  0  0
  3  4  1  0  0  0  0
  4  5  1  0  0  0  0
  4 10  2  0  0  0  0
  5  6  2  0  0  0  0
  5 62  1  0  0  0  0
  6  7  1  0  0  0  0
  6 61  1  0  0  0  0
  7  8  1  0  0  0  0
  7  9  2  0  0  0  0
  9 10  1  0  0  0  0
  9 12  1  0  0  0  0
 10 11  1  0  0  0  0
 12 13  1  0  0  0  0
 12 14  1  0  0  0  0
 12 15  1  0  0  0  0
 15 16  1  0  0  0  0
 15 17  1  0  0  0  0
 15 25  1  0  0  0  0
 17 18  1  0  0  0  0
 17 19  1  0  0  0  0
 17 59  1  0  0  0  0
 19 20  1  0  0  0  0
 19 21  1  0  0  0  0
 19 30  1  0  0  0  0
 21 22  1  0  0  0  0
 21 23  1  0  0  0  0
 21 24  1  0  0  0  0
 24 25  1  0  0  0  0
 24 28  2  0  0  0  0
 24 29  2  0  0  0  0
 25 26  1  0  0  0  0
 25 27  1  0  0  0  0
 30 31  1  0  0  0  0
 30 32  1  0  0  0  0
 30 33  1  0  0  0  0
 33 34  1  0  0  0  0
 33 35  1  0  0  0  0
 33 36  1  0  0  0  0
 36 37  1  0  0  0  0
 36 44  2  0  0  0  0
 37 38  1  0  0  0  0
 37 39  2  0  0  0  0
 39 40  1  0  0  0  0
 39 46  1  0  0  0  0
 40 41  1  0  0  0  0
 40 42  2  0  0  0  0
 42 43  1  0  0  0  0
 42 44  1  0  0  0  0
 44 45  1  0  0  0  0
 46 47  1  0  0  0  0
 46 51  1  0  0  0  0
 46 55  1  0  0  0  0
 47 48  1  0  0  0  0
 47 49  1  0  0  0  0
 47 50  1  0  0  0  0
 51 52  1  0  0  0  0
 51 53  1  0  0  0  0
 51 54  1  0  0  0  0
 55 56  1  0  0  0  0
 55 57  1  0  0  0  0
 55 58  1  0  0  0  0
 59 60  1  0  0  0  0
 62 63  1  0  0  0  0
 62 64  1  0  0  0  0
 65 66  1  0  0  0 