
     RDKit          3D

 32 34  0  0  0  0  0  0  0  0999 V2000
    1.3869   -1.3307   -1.7141 O   0  0  0  0  0  0  0  0  0  0  0  0
    1.1027   -2.3543   -0.7386 C   0  0  0  0  0  0  0  0  0  0  0  0
   -0.2563   -2.0835   -0.0813 C   0  0  0  0  0  0  0  0  0  0  0  0
   -0.1475   -0.8836    0.7206 O   0  0  0  0  0  0  0  0  0  0  0  0
   -1.4141   -0.4498    1.2479 C   0  0  0  0  0  0  0  0  0  0  0  0
   -2.3609   -0.1144    0.2218 O   0  0  0  0  0  0  0  0  0  0  0  0
   -2.1055    1.1643   -0.3996 C   0  0  0  0  0  0  0  0  0  0  0  0
   -0.9749    1.0780   -1.4268 C   0  0  0  0  0  0  0  0  0  0  0  0
   -0.2949    2.3249   -1.6254 O   0  0  0  0  0  0  0  0  0  0  0  0
    1.0354    2.0884   -2.1160 C   0  0  0  0  0  0  0  0  0  0  0  0
    1.9139    1.7458   -1.0325 O   0  0  0  0  0  0  0  0  0  0  0  0
    2.0903    2.8499   -0.1097 C   0  0  0  0  0  0  0  0  0  0  0  0
    3.5258    3.2013   -0.0476 C   0  0  0  0  0  0  0  0  0  0  0  0
    4.6581    3.4599   -0.0491 N   0  0  0  0  0  0  0  0  0  0  0  0
    1.5557    2.4302    1.2505 C   0  0  0  0  0  0  0  0  0  0  0  0
    1.7376    1.1239    1.7404 C   0  0  0  0  0  0  0  0  0  0  0  0
    1.2723    0.7672    3.0073 C   0  0  0  0  0  0  0  0  0  0  0  0
    0.6077    1.7041    3.7943 C   0  0  0  0  0  0  0  0  0  0  0  0
    0.4193    3.0020    3.3251 C   0  0  0  0  0  0  0  0  0  0  0  0
    0.8921    3.3652    2.0627 C   0  0  0  0  0  0  0  0  0  0  0  0
    1.1239    0.9111   -3.1241 C   0  0  0  0  0  0  0  0  0  0  0  0
    1.4622   -0.3387   -2.4327 O   0  0  0  0  0  0  0  0  0  0  0  0
   -0.2208    0.6913   -3.8118 C   0  0  0  0  0  0  0  0  0  0  0  0
   -0.1355   -0.4671   -4.6566 O   0  0  0  0  0  0  0  0  0  0  0  0
   -1.3572    0.4686   -2.7877 C   0  0  0  0  0  0  0  0  0  0  0  0
   -2.5543    1.0576   -3.3183 O   0  0  0  0  0  0  0  0  0  0  0  0
   -1.9821   -1.5411    2.1791 C   0  0  0  0  0  0  0  0  0  0  0  0
   -1.1359   -1.6980    3.3377 O   0  0  0  0  0  0  0  0  0  0  0  0
   -2.0655   -2.8985    1.4621 C   0  0  0  0  0  0  0  0  0  0  0  0
   -2.4004   -3.9393    2.4044 O   0  0  0  0  0  0  0  0  0  0  0  0
   -0.7292   -3.2540    0.7885 C   0  0  0  0  0  0  0  0  0  0  0  0
    0.2494   -3.5335    1.8026 O   0  0  0  0  0  0  0  0  0  0  0  0
  1  2  1  0
  2  3  1  0
  3  4  1  0
  4  5  1  0
  5  6  1  0
  6  7  1  0
  7  8  1  0
  8  9  1  0
  9 10  1  0
 10 11  1  0
 11 12  1  0
 12 13  1  0
 13 14  3  0
 12 15  1  0
 15 16  2  0
 16 17  1  0
 17 18  2  0
 18 19  1  0
 19 20  2  0
 10 21  1  0
 21 22  1  0
 21 23  1  0
 23 24  1  0
 23 25  1  0
 25 26  1  0
  5 27  1  0
 27 28  1  0
 27 29  1  0
 29 30  1  0
 29 31  1  0
 31 32  1  0
 20 15  1  0
 25  8  1  0
 31  3  1  0
M  END
>  <target>  (1) 
-0.77

$$$$

     RDKit          3D

 15 16  0  0  0  0  0  0  0  0999 V2000
   -3.7727    0.9367    0.7451 C   0  0  0  0  0  0  0  0  0  0  0  0
   -3.2380    0.1040   -0.3562 C   0  0  0  0  0  0  0  0  0  0  0  0
   -4.1665   -0.4605   -1.1768 O   0  0  0  0  0  0  0  0  0  0  0  0
   -3.4941   -1.1736   -2.1094 C   0  0  0  0  0  0  0  0  0  0  0  0
   -2.1390   -1.0771   -1.9008 C   0  0  0  0  0  0  0  0  0  0  0  0
   -1.9526   -0.2429   -0.7531 C   0  0  0  0  0  0  0  0  0  0  0  0
   -0.7307    0.2039   -0.0762 C   0  0  0  0  0  0  0  0  0  0  0  0
   -0.7888    0.9530    0.8922 O   0  0  0  0  0  0  0  0  0  0  0  0
    0.4338   -0.2974   -0.6311 N   0  0  0  0  0  0  0  0  0  0  0  0
    1.7621   -0.0569   -0.2195 C   0  0  0  0  0  0  0  0  0  0  0  0
    2.1171    0.7648    0.8516 C   0  0  0  0  0  0  0  0  0  0  0  0
    3.4623    0.9475    1.1904 C   0  0  0  0  0  0  0  0  0  0  0  0
    4.4637    0.3109    0.4619 C   0  0  0  0  0  0  0  0  0  0  0  0
    4.1219   -0.5104   -0.6081 C   0  0  0  0  0  0  0  0  0  0  0  0
    2.7784   -0.6929   -0.9466 C   0  0  0  0  0  0  0  0  0  0  0  0
  1  2  1  0
  2  3  1  0
  3  4  1  0
  4  5  2  0
  5  6  1  0
  6  7  1  0
  7  8  2  0
  7  9  1  0
  9 10  1  0
 10 11  2  0
 11 12  1  0
 12 13  2  0
 13 14  1  0
 14 15  2  0
  6  2  2  0
 15 10  1  0
M  END
>  <target>  (2) 
-3.3

$$$$

     RDKit          3D

 11 10  0  0  0  0  0  0  0  0999 V2000
   -2.8438    0.7339   -0.0782 C   0  0  0  0  0  0  0  0  0  0  0  0
   -1.9568   -0.2380    0.6497 C   0  0  0  0  0  0  0  0  0  0  0  0
   -2.3625   -0.4997    2.0770 C   0  0  0  0  0  0  0  0  0  0  0  0
   -0.8728   -0.8398    0.1226 C   0  0  0  0  0  0  0  0  0  0  0  0
   -0.3441   -0.7077   -1.2808 C   0  0  0  0  0  0  0  0  0  0  0  0
    0.7564    0.3544   -1.4134 C   0  0  0  0  0  0  0  0  0  0  0  0
    2.0231    0.0426   -0.6388 C   0  0  0  0  0  0  0  0  0  0  0  0
    2.9456   -0.9480   -1.3041 C   0  0  0  0  0  0  0  0  0  0  0  0
    2.3726    0.5907    0.5408 C   0  0  0  0  0  0  0  0  0  0  0  0
    1.5640    1.5535    1.3216 C   0  0  0  0  0  0  0  0  0  0  0  0
    1.9866    2.0256    2.3711 O   0  0  0  0  0  0  0  0  0  0  0  0
  1  2  1  0
  2  3  1  0
  2  4  2  3
  4  5  1  0
  5  6  1  0
  6  7  1  0
  7  8  1  0
  7  9  2  3
  9 10  1  0
 10 11  2  0
M  END
>  <target>  (3) 
-2.06

$$$$

     RDKit          3D

 22 26  0  0  0  0  0  0  0  0999 V2000
    5.7354   -0.5148   -0.2704 C   0  0  0  0  0  0  0  0  0  0  0  0
    5.0722   -1.6618    0.1332 C   0  0  0  0  0  0  0  0  0  0  0  0
    3.6771   -1.6600    0.2371 C   0  0  0  0  0  0  0  0  0  0  0  0
    2.8887   -0.5146   -0.0574 C   0  0  0  0  0  0  0  0  0  0  0  0
    3.5989    0.6375   -0.4660 C   0  0  0  0  0  0  0  0  0  0  0  0
    5.0013    0.6286   -0.5683 C   0  0  0  0  0  0  0  0  0  0  0  0
    2.9005    1.7993   -0.7723 C   0  0  0  0  0  0  0  0  0  0  0  0
    1.5094    1.8406   -0.6809 C   0  0  0  0  0  0  0  0  0  0  0  0
    0.7329    0.7301   -0.2802 C   0  0  0  0  0  0  0  0  0  0  0  0
    1.4451   -0.4596    0.0337 C   0  0  0  0  0  0  0  0  0  0  0  0
    0.6786   -1.5657    0.4324 C   0  0  0  0  0  0  0  0  0  0  0  0
   -0.7142   -1.5216    0.5230 C   0  0  0  0  0  0  0  0  0  0  0  0
   -1.4546   -0.3678    0.2223 C   0  0  0  0  0  0  0  0  0  0  0  0
   -2.8985   -0.3313    0.3191 C   0  0  0  0  0  0  0  0  0  0  0  0
   -3.7127   -1.4259    0.7179 C   0  0  0  0  0  0  0  0  0  0  0  0
   -5.1068   -1.3394    0.7955 C   0  0  0  0  0  0  0  0  0  0  0  0
   -5.7431   -0.1512    0.4764 C   0  0  0  0  0  0  0  0  0  0  0  0
   -4.9832    0.9449    0.0814 C   0  0  0  0  0  0  0  0  0  0  0  0
   -3.5815    0.8649    0.0011 C   0  0  0  0  0  0  0  0  0  0  0  0
   -2.8569    1.9816   -0.3977 C   0  0  0  0  0  0  0  0  0  0  0  0
   -1.4658    1.9348   -0.4874 C   0  0  0  0  0  0  0  0  0  0  0  0
   -0.7156    0.7760   -0.1859 C   0  0  0  0  0  0  0  0  0  0  0  0
  1  2  2  0
  2  3  1  0
  3  4  2  0
  4  5  1  0
  5  6  2  0
  5  7  1  0
  7  8  2  0
  8  9  1  0
  9 10  2  0
 10 11  1  0
 11 12  2  0
 12 13  1  0
 13 14  2  0
 14 15  1  0
 15 16  2  0
 16 17  1  0
 17 18  2  0
 18 19  1  0
 19 20  2  0
 20 21  1  0
 21 22  2  0
  6  1  1  0
 10  4  1  0
 22  9  1  0
 22 13  1  0
 19 14  1  0
M  END
>  <target>  (4) 
-7.87

$$$$

     RDKit          3D

  5  5  0  0  0  0  0  0  0  0999 V2000
    0.7008   -0.7208   -0.0157 C   0  0  0  0  0  0  0  0  0  0  0  0
   -0.7230   -0.6975    0.0414 C   0  0  0  0  0  0  0  0  0  0  0  0
   -1.2191    0.5878    0.0390 C   0  0  0  0  0  0  0  0  0  0  0  0
    0.0275    1.7586   -0.0318 S   0  0  0  0  0  0  0  0  0  0  0  0
    1.2368    0.5477   -0.0595 C   0  0  0  0  0  0  0  0  0  0  0  0
  1  2  1  0
  2  3  2  0
  3  4  1  0
  4  5  1  0
  5  1  2  0
M  END
>  <target>  (5) 
-1.33

$$$$

     RDKit          3D

  9 10  0  0  0  0  0  0  0  0999 V2000
   -1.5485    1.1649   -0.1686 C   0  0  0  0  0  0  0  0  0  0  0  0
   -1.9803   -0.1190    0.1493 C   0  0  0  0  0  0  0  0  0  0  0  0
   -1.0641   -1.1602    0.3288 C   0  0  0  0  0  0  0  0  0  0  0  0
    0.3037   -0.8755    0.1798 C   0  0  0  0  0  0  0  0  0  0  0  0
    1.6578   -1.9308    0.3355 S   0  0  0  0  0  0  0  0  0  0  0  0
    2.7042   -0.6252   -0.0252 C   0  0  0  0  0  0  0  0  0  0  0  0
    2.1361    0.5363   -0.2535 N   0  0  0  0  0  0  0  0  0  0  0  0
    0.7608    0.4063   -0.1391 C   0  0  0  0  0  0  0  0  0  0  0  0
   -0.1843    1.4376   -0.3147 C   0  0  0  0  0  0  0  0  0  0  0  0
  1  2  2  0
  2  3  1  0
  3  4  2  0
  4  5  1  0
  5  6  1  0
  6  7  2  0
  7  8  1  0
  8  9  2  0
  8  4  1  0
  9  1  1  0
M  END
>  <target>  (6) 
-1.5

$$$$

     RDKit          3D

 17 18  0  0  0  0  0  0  0  0999 V2000
    5.2373    0.1683   -0.3690 Cl  0  0  0  0  0  0  0  0  0  0  0  0
    3.5224    0.1132   -0.2482 C   0  0  0  0  0  0  0  0  0  0  0  0
    2.8014    1.2954   -0.1273 C   0  0  0  0  0  0  0  0  0  0  0  0
    1.4077    1.2493   -0.0292 C   0  0  0  0  0  0  0  0  0  0  0  0
    0.5761    2.7624    0.1189 Cl  0  0  0  0  0  0  0  0  0  0  0  0
    0.7109    0.0228   -0.0501 C   0  0  0  0  0  0  0  0  0  0  0  0
    1.4748   -1.1567   -0.1739 C   0  0  0  0  0  0  0  0  0  0  0  0
    0.7290   -2.7204   -0.2108 Cl  0  0  0  0  0  0  0  0  0  0  0  0
    2.8686   -1.1132   -0.2722 C   0  0  0  0  0  0  0  0  0  0  0  0
   -0.7646   -0.0246    0.0539 C   0  0  0  0  0  0  0  0  0  0  0  0
   -1.5820    0.0217   -1.0944 C   0  0  0  0  0  0  0  0  0  0  0  0
   -0.9047    0.1363   -2.6854 Cl  0  0  0  0  0  0  0  0  0  0  0  0
   -2.9774   -0.0232   -0.9949 C   0  0  0  0  0  0  0  0  0  0  0  0
   -3.5881   -0.1153    0.2528 C   0  0  0  0  0  0  0  0  0  0  0  0
   -2.8040   -0.1626    1.4023 C   0  0  0  0  0  0  0  0  0  0  0  0
   -1.4084   -0.1178    1.3051 C   0  0  0  0  0  0  0  0  0  0  0  0
   -0.5090   -0.1817    2.7850 Cl  0  0  0  0  0  0  0  0  0  0  0  0
  1  2  1  0
  2  3  2  0
  3  4  1  0
  4  5  1  0
  4  6  2  0
  6  7  1  0
  7  8  1  0
  7  9  2  0
  6 10  1  0
 10 11  2  0
 11 12  1  0
 11 13  1  0
 13 14  2  0
 14 15  1  0
 15 16  2  0
 16 17  1  0
  9  2  1  0
 16 10  1  0
M  END
>  <target>  (7) 
-7.32

$$$$

     RDKit          3D

 20 23  0  0  0  0  0  0  0  0999 V2000
   -2.4712    1.4908    1.4033 C   0  0  0  0  0  0  0  0  0  0  0  0
   -2.3057    0.6686    0.1147 C   0  0  0  0  0  0  0  0  0  0  0  0
   -1.5211    1.4936   -0.9307 C   0  0  0  0  0  0  0  0  0  0  0  0
   -0.0214    1.5853   -0.6372 C   0  0  0  0  0  0  0  0  0  0  0  0
    0.6219    0.1914   -0.4975 C   0  0  0  0  0  0  0  0  0  0  0  0
   -0.1171   -0.5968    0.6127 C   0  0  0  0  0  0  0  0  0  0  0  0
    0.5310   -1.9730    0.7841 C   0  0  0  0  0  0  0  0  0  0  0  0
    1.9568   -1.8099    1.2994 C   0  0  0  0  0  0  0  0  0  0  0  0
    2.7483   -0.7625    0.5556 C   0  0  0  0  0  0  0  0  0  0  0  0
    4.1418   -0.7438    0.7359 C   0  0  0  0  0  0  0  0  0  0  0  0
    4.9225    0.2002    0.0849 C   0  0  0  0  0  0  0  0  0  0  0  0
    6.2687    0.1679    0.2938 O   0  0  0  0  0  0  0  0  0  0  0  0
    4.3416    1.1372   -0.7551 C   0  0  0  0  0  0  0  0  0  0  0  0
    2.9557    1.1338   -0.9331 C   0  0  0  0  0  0  0  0  0  0  0  0
    2.1324    0.2083   -0.2645 C   0  0  0  0  0  0  0  0  0  0  0  0
   -1.6350   -0.6952    0.3807 C   0  0  0  0  0  0  0  0  0  0  0  0
   -2.0747   -1.5720   -0.8053 C   0  0  0  0  0  0  0  0  0  0  0  0
   -3.3994   -0.9871   -1.2993 C   0  0  0  0  0  0  0  0  0  0  0  0
   -3.6859    0.2199   -0.4075 C   0  0  0  0  0  0  0  0  0  0  0  0
   -4.3548    1.2457   -1.1172 O   0  0  0  0  0  0  0  0  0  0  0  0
  1  2  1  0
  2  3  1  0
  3  4  1  0
  4  5  1  0
  5  6  1  0
  6  7  1  0
  7  8  1  0
  8  9  1  0
  9 10  2  0
 10 11  1  0
 11 12  1  0
 11 13  2  0
 13 14  1  0
 14 15  2  0
  6 16  1  0
 16 17  1  0
 17 18  1  0
 18 19  1  0
 19 20  1  0
 19  2  1  0
 16  2  1  0
 15  5  1  0
 15  9  1  0
M  END
>  <target>  (8) 
-5.03

$$$$

     RDKit          3D

 19 23  0  0  0  0  0  0  0  0999 V2000
   -2.2619    2.8193   -0.0399 Cl  0  0  0  0  0  0  0  0  0  0  0  0
   -1.8863    1.1816    0.1789 C   0  0  0  0  0  0  0  0  0  0  0  0
   -1.7126    0.5239    1.3337 C   0  0  0  0  0  0  0  0  0  0  0  0
   -1.8183    1.1400    2.9086 Cl  0  0  0  0  0  0  0  0  0  0  0  0
   -1.3390   -0.9009    0.9942 C   0  0  0  0  0  0  0  0  0  0  0  0
   -1.5673   -2.0844    2.2705 Cl  0  0  0  0  0  0  0  0  0  0  0  0
    0.0888   -0.9544    0.3598 C   0  0  0  0  0  0  0  0  0  0  0  0
    1.3233   -0.2365    0.9741 C   0  0  0  0  0  0  0  0  0  0  0  0
    1.1930    1.2321    0.5222 C   0  0  0  0  0  0  0  0  0  0  0  0
    1.0312    0.8695   -0.9679 C   0  0  0  0  0  0  0  0  0  0  0  0
    2.3619    0.1300   -1.1626 C   0  0  0  0  0  0  0  0  0  0  0  0
    2.3788   -1.2930   -1.0942 O   0  0  0  0  0  0  0  0  0  0  0  0
    2.5587   -0.6153    0.1460 C   0  0  0  0  0  0  0  0  0  0  0  0
   -0.1160   -0.1792   -1.0013 C   0  0  0  0  0  0  0  0  0  0  0  0
   -1.6307    0.2033   -0.9447 C   0  0  0  0  0  0  0  0  0  0  0  0
   -2.2869    0.6400   -2.5133 Cl  0  0  0  0  0  0  0  0  0  0  0  0
   -2.2495   -1.0782   -0.2757 C   0  0  0  0  0  0  0  0  0  0  0  0
   -2.0028   -2.6118   -1.1862 Cl  0  0  0  0  0  0  0  0  0  0  0  0
   -4.0295   -0.9845    0.0455 Cl  0  0  0  0  0  0  0  0  0  0  0  0
  1  2  1  0
  2  3  2  0
  3  4  1  0
  3  5  1  0
  5  6  1  0
  5  7  1  0
  7  8  1  0
  8  9  1  0
  9 10  1  0
 10 11  1  0
 11 12  1  0
 12 13  1  0
 10 14  1  0
 14 15  1  0
 15 16  1  0
 15 17  1  0
 17 18  1  0
 17 19  1  0
 13  8  1  0
 13 11  1  0
 14  7  1  0
 15  2  1  0
 17  5  1  0
M  END
>  <target>  (9) 
-6.29

$$$$

     RDKit          3D

 29 33  0  0  0  0  0  0  0  0999 V2000
   -7.5163    0.1496   -0.5517 C   0  0  0  0  0  0  0  0  0  0  0  0
   -6.6188   -0.8574   -1.0076 O   0  0  0  0  0  0  0  0  0  0  0  0
   -5.3123   -0.7018   -0.6172 C   0  0  0  0  0  0  0  0  0  0  0  0
   -4.3831   -1.0543   -1.6001 C   0  0  0  0  0  0  0  0  0  0  0  0
   -3.0146   -0.9671   -1.3522 C   0  0  0  0  0  0  0  0  0  0  0  0
   -2.2031   -1.3502   -2.3875 O   0  0  0  0  0  0  0  0  0  0  0  0
   -0.8488   -1.6063   -2.0152 C   0  0  0  0  0  0  0  0  0  0  0  0
   -0.2786   -0.4748   -1.1740 C   0  0  0  0  0  0  0  0  0  0  0  0
    1.1144   -0.7157   -0.9311 O   0  0  0  0  0  0  0  0  0  0  0  0
    1.6642    0.2537   -0.1372 C   0  0  0  0  0  0  0  0  0  0  0  0
    3.0346    0.4297   -0.1825 C   0  0  0  0  0  0  0  0  0  0  0  0
    4.0665   -0.3148   -0.9415 C   0  0  0  0  0  0  0  0  0  0  0  0
    5.2707    0.6202   -0.7168 C   0  0  0  0  0  0  0  0  0  0  0  0
    5.0073    1.4531    0.4464 O   0  0  0  0  0  0  0  0  0  0  0  0
    3.6466    1.4000    0.5960 C   0  0  0  0  0  0  0  0  0  0  0  0
    2.9327    2.2176    1.4505 C   0  0  0  0  0  0  0  0  0  0  0  0
    1.5477    2.0474    1.5173 C   0  0  0  0  0  0  0  0  0  0  0  0
    0.9193    1.0630    0.7315 C   0  0  0  0  0  0  0  0  0  0  0  0
   -0.5423    0.8326    0.8433 C   0  0  0  0  0  0  0  0  0  0  0  0
   -1.2222    1.5909    1.5267 O   0  0  0  0  0  0  0  0  0  0  0  0
   -1.0549   -0.4133    0.1406 C   0  0  0  0  0  0  0  0  0  0  0  0
   -2.5437   -0.5006   -0.1202 C   0  0  0  0  0  0  0  0  0  0  0  0
   -3.4854   -0.2074    0.8840 C   0  0  0  0  0  0  0  0  0  0  0  0
   -4.8670   -0.2954    0.6501 C   0  0  0  0  0  0  0  0  0  0  0  0
   -5.8152   -0.0489    1.6079 O   0  0  0  0  0  0  0  0  0  0  0  0
   -5.3853    0.5485    2.8248 C   0  0  0  0  0  0  0  0  0  0  0  0
    6.5895   -0.1049   -0.5299 C   0  0  0  0  0  0  0  0  0  0  0  0
    6.8072   -0.8156    0.7787 C   0  0  0  0  0  0  0  0  0  0  0  0
    7.5382   -0.1013   -1.4831 C   0  0  0  0  0  0  0  0  0  0  0  0
  1  2  1  0
  2  3  1  0
  3  4  2  0
  4  5  1  0
  5  6  1  0
  6  7  1  0
  7  8  1  0
  8  9  1  0
  9 10  1  0
 10 11  2  0
 11 12  1  0
 12 13  1  0
 13 14  1  0
 14 15  1  0
 15 16  2  0
 16 17  1  0
 17 18  2  0
 18 19  1  0
 19 20  2  0
 19 21  1  0
 21 22  1  0
 22 23  1  0
 23 24  2  0
 24 25  1  0
 25 26  1  0
 13 27  1  0
 27 28  1  0
 27 29  2  0
 15 11  1  0
 18 10  1  0
 21  8  1  0
 22  5  2  0
 24  3  1  0
M  END
>  <target>  (10) 
-4.42

$$$$

     RDKit          3D

  6  6  0  0  0  0  0  0  0  0999 V2000
    1.4160    2.1374   -0.0310 O   0  0  0  0  0  0  0  0  0  0  0  0
    0.7173    1.1400   -0.0278 C   0  0  0  0  0  0  0  0  0  0  0  0
    1.1861   -0.2849    0.1275 C   0  0  0  0  0  0  0  0  0  0  0  0
   -0.0557   -1.0927   -0.2405 C   0  0  0  0  0  0  0  0  0  0  0  0
   -1.2041   -0.1700    0.1166 C   0  0  0  0  0  0  0  0  0  0  0  0
   -0.6597    1.1320   -0.1150 N   0  0  0  0  0  0  0  0  0  0  0  0
  1  2  2  0
  2  3  1  0
  3  4  1  0
  4  5  1  0
  5  6  1  0
  6  2  1  0
M  END
>  <target>  (11) 
1.07

$$$$

     RDKit          3D

 11 12  0  0  0  0  0  0  0  0999 V2000
    3.6241   -2.0848   -0.0759 Cl  0  0  0  0  0  0  0  0  0  0  0  0
    2.2722   -1.0224    0.0050 C   0  0  0  0  0  0  0  0  0  0  0  0
    2.4723    0.3286    0.2713 C   0  0  0  0  0  0  0  0  0  0  0  0
    1.3760    1.1908    0.3370 C   0  0  0  0  0  0  0  0  0  0  0  0
    0.0723    0.7081    0.1368 C   0  0  0  0  0  0  0  0  0  0  0  0
   -1.0405    1.5617    0.1995 C   0  0  0  0  0  0  0  0  0  0  0  0
   -2.3304    1.0677   -0.0016 C   0  0  0  0  0  0  0  0  0  0  0  0
   -2.5245   -0.2846   -0.2676 C   0  0  0  0  0  0  0  0  0  0  0  0
   -1.4293   -1.1473   -0.3335 C   0  0  0  0  0  0  0  0  0  0  0  0
   -0.1250   -0.6671   -0.1338 C   0  0  0  0  0  0  0  0  0  0  0  0
    0.9865   -1.5227   -0.1969 C   0  0  0  0  0  0  0  0  0  0  0  0
  1  2  1  0
  2  3  2  0
  3  4  1  0
  4  5  2  0
  5  6  1  0
  6  7  2  0
  7  8  1  0
  8  9  2  0
  9 10  1  0
 10 11  2  0
 11  2  1  0
 10  5  1  0
M  END
>  <target>  (12) 
-4.14

$$$$

     RDKit          3D

  5  4  0  0  0  0  0  0  0  0999 V2000
   -2.2059   -0.3918   -0.1226 C   0  0  0  0  0  0  0  0  0  0  0  0
   -0.9235    0.2907    0.3274 C   0  0  0  0  0  0  0  0  0  0  0  0
    0.2602   -0.1066   -0.5549 C   0  0  0  0  0  0  0  0  0  0  0  0
    1.5220    0.5793   -0.1158 C   0  0  0  0  0  0  0  0  0  0  0  0
    2.6130   -0.0630    0.3200 C   0  0  0  0  0  0  0  0  0  0  0  0
  1  2  1  0
  2  3  1  0
  3  4  1  0
  4  5  2  0
M  END
>  <target>  (13) 
-2.68

$$$$

     RDKit          3D

 16 17  0  0  0  0  0  0  0  0999 V2000
   -1.3686    2.7744    1.0343 C   0  0  0  0  0  0  0  0  0  0  0  0
   -0.1702    1.9839    0.5119 C   0  0  0  0  0  0  0  0  0  0  0  0
   -0.4469    0.4803    0.2382 C   0  0  0  0  0  0  0  0  0  0  0  0
   -1.5638    0.3273   -0.8230 C   0  0  0  0  0  0  0  0  0  0  0  0
   -1.7854    1.1384   -1.7215 O   0  0  0  0  0  0  0  0  0  0  0  0
   -2.3010   -0.8264   -0.7735 N   0  0  0  0  0  0  0  0  0  0  0  0
   -1.9503   -1.8828    0.1090 C   0  0  0  0  0  0  0  0  0  0  0  0
   -1.6908   -1.3330    1.3929 N   0  0  0  0  0  0  0  0  0  0  0  0
   -0.8982   -0.2253    1.5403 C   0  0  0  0  0  0  0  0  0  0  0  0
   -0.5482    0.1112    2.6710 O   0  0  0  0  0  0  0  0  0  0  0  0
    0.8854   -0.1365   -0.2813 C   0  0  0  0  0  0  0  0  0  0  0  0
    1.2056   -0.1332   -1.6528 C   0  0  0  0  0  0  0  0  0  0  0  0
    2.4074   -0.6752   -2.1167 C   0  0  0  0  0  0  0  0  0  0  0  0
    3.3230   -1.2161   -1.2204 C   0  0  0  0  0  0  0  0  0  0  0  0
    3.0436   -1.2034    0.1420 C   0  0  0  0  0  0  0  0  0  0  0  0
    1.8425   -0.6620    0.6083 C   0  0  0  0  0  0  0  0  0  0  0  0
  1  2  1  0
  2  3  1  0
  3  4  1  0
  4  5  2  0
  4  6  1  0
  6  7  1  0
  7  8  1  0
  8  9  1  0
  9 10  2  0
  3 11  1  0
 11 12  2  0
 12 13  1  0
 13 14  2  0
 14 15  1  0
 15 16  2  0
  9  3  1  0
 16 11  1  0
M  END
>  <target>  (14) 
-2.64

$$$$

     RDKit          3D

 14 13  0  0  0  0  0  0  0  0999 V2000
    4.9678   -0.5666    1.8380 C   0  0  0  0  0  0  0  0  0  0  0  0
    5.5109   -1.1347    0.5358 C   0  0  0  0  0  0  0  0  0  0  0  0
    4.5495   -0.9780   -0.6452 C   0  0  0  0  0  0  0  0  0  0  0  0
    4.3059    0.4821   -1.0345 C   0  0  0  0  0  0  0  0  0  0  0  0
    3.5103    0.6385   -2.3349 C   0  0  0  0  0  0  0  0  0  0  0  0
    2.1166    0.0029   -2.3440 C   0  0  0  0  0  0  0  0  0  0  0  0
    1.1848    0.5615   -1.2666 C   0  0  0  0  0  0  0  0  0  0  0  0
   -0.2238   -0.0226   -1.3953 C   0  0  0  0  0  0  0  0  0  0  0  0
   -1.1558    0.5298   -0.3155 C   0  0  0  0  0  0  0  0  0  0  0  0
   -2.5637   -0.0538   -0.4440 C   0  0  0  0  0  0  0  0  0  0  0  0
   -3.4956    0.4985    0.6359 C   0  0  0  0  0  0  0  0  0  0  0  0
   -4.9036   -0.0851    0.5075 C   0  0  0  0  0  0  0  0  0  0  0  0
   -5.8347    0.4669    1.5866 C   0  0  0  0  0  0  0  0  0  0  0  0
   -7.2356   -0.1108    1.4625 C   0  0  0  0  0  0  0  0  0  0  0  0
  1  2  1  0
  2  3  1  0
  3  4  1  0
  4  5  1  0
  5  6  1  0
  6  7  1  0
  7  8  1  0
  8  9  1  0
  9 10  1  0
 10 11  1  0
 11 12  1  0
 12 13  1  0
 13 14  1  0
M  END
>  <target>  (15) 
-7.96

$$$$

     RDKit          3D

  4  3  0  0  0  0  0  0  0  0999 V2000
    1.2542    0.0079    0.2933 C   0  0  0  0  0  0  0  0  0  0  0  0
   -0.0243    0.3941   -0.4360 C   0  0  0  0  0  0  0  0  0  0  0  0
   -1.2027   -0.4611    0.0065 C   0  0  0  0  0  0  0  0  0  0  0  0
   -0.3886    2.1168   -0.1327 Cl  0  0  0  0  0  0  0  0  0  0  0  0
  1  2  1  0
  2  3  1  0
  2  4  1  0
M  END
>  <target>  (16) 
-1.41

$$$$

     RDKit          3D

  6  5  0  0  0  0  0  0  0  0999 V2000
    2.1100   -0.3261   -0.0192 C   0  0  0  0  0  0  0  0  0  0  0  0
    0.9541    0.6036    0.3213 C   0  0  0  0  0  0  0  0  0  0  0  0
   -0.3308    0.3055   -0.4753 C   0  0  0  0  0  0  0  0  0  0  0  0
   -1.3906    1.3606   -0.1379 C   0  0  0  0  0  0  0  0  0  0  0  0
   -0.8854   -1.1040   -0.2293 C   0  0  0  0  0  0  0  0  0  0  0  0
   -1.1398   -1.3127    1.1526 O   0  0  0  0  0  0  0  0  0  0  0  0
  1  2  1  0
  2  3  1  0
  3  4  1  0
  3  5  1  0
  5  6  1  0
M  END
>  <target>  (17) 
-0.47

$$$$

     RDKit          3D

  8  8  0  0  0  0  0  0  0  0999 V2000
    3.6582    0.0331    0.1553 N   0  0  0  0  0  0  0  0  0  0  0  0
    2.4985    0.0226    0.1061 C   0  0  0  0  0  0  0  0  0  0  0  0
    1.0663    0.0097    0.0453 C   0  0  0  0  0  0  0  0  0  0  0  0
    0.3767   -1.2067   -0.0065 C   0  0  0  0  0  0  0  0  0  0  0  0
   -1.0183   -1.2177   -0.0657 C   0  0  0  0  0  0  0  0  0  0  0  0
   -1.7257   -0.0156   -0.0733 C   0  0  0  0  0  0  0  0  0  0  0  0
   -1.0420    1.1991   -0.0217 C   0  0  0  0  0  0  0  0  0  0  0  0
    0.3529    1.2133    0.0375 C   0  0  0  0  0  0  0  0  0  0  0  0
  1  2  3  0
  2  3  1  0
  3  4  2  0
  4  5  1  0
  5  6  2  0
  6  7  1  0
  7  8  2  0
  8  3  1  0
M  END
>  <target>  (18) 
-1.0

$$$$

     RDKit          3D

 19 19  0  0  0  0  0  0  0  0999 V2000
    2.4200   -0.7997    3.1670 C   0  0  0  0  0  0  0  0  0  0  0  0
    2.6257   -0.0345    1.8758 C   0  0  0  0  0  0  0  0  0  0  0  0
    1.5997   -0.3973    0.9702 O   0  0  0  0  0  0  0  0  0  0  0  0
    1.7344    0.0630   -0.5777 P   0  0  0  0  0  0  0  0  0  0  0  0
    2.0248    1.9501   -0.9519 S   0  0  0  0  0  0  0  0  0  0  0  0
    2.9584   -0.9029   -1.0423 O   0  0  0  0  0  0  0  0  0  0  0  0
    3.3110   -0.9371   -2.4152 C   0  0  0  0  0  0  0  0  0  0  0  0
    4.1612   -2.1663   -2.6631 C   0  0  0  0  0  0  0  0  0  0  0  0
    0.4913   -0.6842   -1.2891 O   0  0  0  0  0  0  0  0  0  0  0  0
   -0.8048   -0.3830   -0.9670 C   0  0  0  0  0  0  0  0  0  0  0  0
   -1.7945   -1.0649   -1.6309 C   0  0  0  0  0  0  0  0  0  0  0  0
   -3.0861   -0.7421   -1.2765 C   0  0  0  0  0  0  0  0  0  0  0  0
   -4.2460   -1.4235   -1.9367 C   0  0  0  0  0  0  0  0  0  0  0  0
   -3.3636    0.1837   -0.3357 N   0  0  0  0  0  0  0  0  0  0  0  0
   -2.3201    0.7953    0.2575 C   0  0  0  0  0  0  0  0  0  0  0  0
   -1.0320    0.5424   -0.0301 N   0  0  0  0  0  0  0  0  0  0  0  0
   -2.6265    1.8370    1.3095 C   0  0  0  0  0  0  0  0  0  0  0  0
   -1.9755    1.4752    2.6446 C   0  0  0  0  0  0  0  0  0  0  0  0
   -2.1866    3.2232    0.8412 C   0  0  0  0  0  0  0  0  0  0  0  0
  1  2  1  0
  2  3  1  0
  3  4  1  0
  4  5  2  0
  4  6  1  0
  6  7  1  0
  7  8  1  0
  4  9  1  0
  9 10  1  0
 10 11  2  0
 11 12  1  0
 12 13  1  0
 12 14  2  0
 14 15  1  0
 15 16  2  0
 15 17  1  0
 17 18  1  0
 17 19  1  0
 16 10  1  0
M  END
>  <target>  (19) 
-3.64

$$$$

     RDKit          3D

 12 11  0  0  0  0  0  0  0  0999 V2000
    6.1065    0.2616   -0.9672 C   0  0  0  0  0  0  0  0  0  0  0  0
    4.7570    0.7720   -0.4879 C   0  0  0  0  0  0  0  0  0  0  0  0
    3.6805   -0.3081   -0.5923 C   0  0  0  0  0  0  0  0  0  0  0  0
    2.3247    0.2093   -0.1092 C   0  0  0  0  0  0  0  0  0  0  0  0
    1.2473   -0.8715   -0.2138 C   0  0  0  0  0  0  0  0  0  0  0  0
   -0.1093   -0.3539    0.2702 C   0  0  0  0  0  0  0  0  0  0  0  0
   -1.1859   -1.4359    0.1606 C   0  0  0  0  0  0  0  0  0  0  0  0
   -2.5396   -1.0083    0.7366 C   0  0  0  0  0  0  0  0  0  0  0  0
   -3.1922    0.1424   -0.0383 C   0  0  0  0  0  0  0  0  0  0  0  0
   -4.6273    0.4222    0.4237 C   0  0  0  0  0  0  0  0  0  0  0  0
   -5.2755    1.5032   -0.4305 C   0  0  0  0  0  0  0  0  0  0  0  0
   -4.6336    0.8779    1.7733 O   0  0  0  0  0  0  0  0  0  0  0  0
  1  2  1  0
  2  3  1  0
  3  4  1  0
  4  5  1  0
  5  6  1  0
  6  7  1  0
  7  8  1  0
  8  9  1  0
  9 10  1  0
 10 11  1  0
 10 12  1  0
M  END
>  <target>  (20) 
-2.94

$$$$

     RDKit          3D

 17 18  0  0  0  0  0  0  0  0999 V2000
    5.2466   -0.0430    0.1953 Cl  0  0  0  0  0  0  0  0  0  0  0  0
    3.5273   -0.0338    0.1359 C   0  0  0  0  0  0  0  0  0  0  0  0
    2.8803    0.0807   -1.0916 C   0  0  0  0  0  0  0  0  0  0  0  0
    1.4842    0.0881   -1.1430 C   0  0  0  0  0  0  0  0  0  0  0  0
    0.7182   -0.0187    0.0329 C   0  0  0  0  0  0  0  0  0  0  0  0
    1.3983   -0.1338    1.2623 C   0  0  0  0  0  0  0  0  0  0  0  0
    0.5391   -0.2709    2.7590 Cl  0  0  0  0  0  0  0  0  0  0  0  0
    2.7947   -0.1412    1.3141 C   0  0  0  0  0  0  0  0  0  0  0  0
   -0.7572   -0.0081   -0.0589 C   0  0  0  0  0  0  0  0  0  0  0  0
   -1.4800   -1.2115   -0.2093 C   0  0  0  0  0  0  0  0  0  0  0  0
   -0.6837   -2.7468   -0.3116 Cl  0  0  0  0  0  0  0  0  0  0  0  0
   -2.8757   -1.2147   -0.2849 C   0  0  0  0  0  0  0  0  0  0  0  0
   -3.5815   -0.0167   -0.2131 C   0  0  0  0  0  0  0  0  0  0  0  0
   -2.8952    1.1898   -0.0672 C   0  0  0  0  0  0  0  0  0  0  0  0
   -3.8467    2.6325    0.0079 Cl  0  0  0  0  0  0  0  0  0  0  0  0
   -1.4912    1.2014    0.0095 C   0  0  0  0  0  0  0  0  0  0  0  0
   -0.6455    2.7142    0.1858 Cl  0  0  0  0  0  0  0  0  0  0  0  0
  1  2  1  0
  2  3  2  0
  3  4  1  0
  4  5  2  0
  5  6  1  0
  6  7  1  0
  6  8  2  0
  5  9  1  0
  9 10  2  0
 10 11  1  0
 10 12  1  0
 12 13  2  0
 13 14  1  0
 14 15  1  0
 14 16  2  0
 16 17  1  0
  8  2  1  0
 16  9  1  0
M  END
>  <target>  (21) 
-7.43

$$$$

     RDKit          3D

 17 19  0  0  0  0  0  0  0  0999 V2000
    0.1006   -2.6568    1.2138 O   0  0  0  0  0  0  0  0  0  0  0  0
    0.6860   -1.6460    0.8280 C   0  0  0  0  0  0  0  0  0  0  0  0
    2.0539   -1.5874    0.9485 N   0  0  0  0  0  0  0  0  0  0  0  0
    2.7842   -0.5210    0.5548 C   0  0  0  0  0  0  0  0  0  0  0  0
    4.2599   -0.4026    0.6603 C   0  0  0  0  0  0  0  0  0  0  0  0
    4.5335    0.8376   -0.2063 C   0  0  0  0  0  0  0  0  0  0  0  0
    3.2042    1.6004   -0.3330 C   0  0  0  0  0  0  0  0  0  0  0  0
    2.2180    0.5529    0.0221 C   0  0  0  0  0  0  0  0  0  0  0  0
    0.7649    0.6098   -0.1557 C   0  0  0  0  0  0  0  0  0  0  0  0
    0.2673    1.6194   -0.6461 O   0  0  0  0  0  0  0  0  0  0  0  0
    0.0655   -0.5247    0.2644 N   0  0  0  0  0  0  0  0  0  0  0  0
   -1.4007   -0.5618    0.1249 C   0  0  0  0  0  0  0  0  0  0  0  0
   -2.1050    0.5034    0.9840 C   0  0  0  0  0  0  0  0  0  0  0  0
   -3.6244    0.4067    0.8549 C   0  0  0  0  0  0  0  0  0  0  0  0
   -4.0715    0.4724   -0.6030 C   0  0  0  0  0  0  0  0  0  0  0  0
   -3.3808   -0.5897   -1.4542 C   0  0  0  0  0  0  0  0  0  0  0  0
   -1.8596   -0.5001   -1.3429 C   0  0  0  0  0  0  0  0  0  0  0  0
  1  2  2  0
  2  3  1  0
  3  4  1  0
  4  5  1  0
  5  6  1  0
  6  7  1  0
  7  8  1  0
  8  9  1  0
  9 10  2  0
  9 11  1  0
 11 12  1  0
 12 13  1  0
 13 14  1  0
 14 15  1  0
 15 16  1  0
 16 17  1  0
  8  4  2  0
 11  2  1  0
 17 12  1  0
M  END
>  <target>  (22) 
-4.593999999999999

$$$$

     RDKit          3D

 13 12  0  0  0  0  0  0  0  0999 V2000
   -3.8021   -2.7806    0.9919 C   0  0  0  0  0  0  0  0  0  0  0  0
   -2.3829   -2.4519    1.4076 C   0  0  0  0  0  0  0  0  0  0  0  0
   -2.1162   -1.1006    1.0680 O   0  0  0  0  0  0  0  0  0  0  0  0
   -0.5709   -0.6095    0.9475 P   0  0  0  0  0  0  0  0  0  0  0  0
    0.4311   -0.7852    2.6128 S   0  0  0  0  0  0  0  0  0  0  0  0
   -0.8145    0.9487    0.5447 O   0  0  0  0  0  0  0  0  0  0  0  0
   -1.6968    1.7385    1.3266 C   0  0  0  0  0  0  0  0  0  0  0  0
   -1.5267    3.1889    0.9228 C   0  0  0  0  0  0  0  0  0  0  0  0
    0.2169   -1.4837   -0.7916 S   0  0  0  0  0  0  0  0  0  0  0  0
    1.7254   -0.5252   -1.0311 C   0  0  0  0  0  0  0  0  0  0  0  0
    2.5732   -1.0580   -2.5443 S   0  0  0  0  0  0  0  0  0  0  0  0
    4.1312   -0.1346   -2.3613 C   0  0  0  0  0  0  0  0  0  0  0  0
    3.9437    1.3598   -2.5510 C   0  0  0  0  0  0  0  0  0  0  0  0
  1  2  1  0
  2  3  1  0
  3  4  1  0
  4  5  2  0
  4  6  1  0
  6  7  1  0
  7  8  1  0
  4  9  1  0
  9 10  1  0
 10 11  1  0
 11 12  1  0
 12 13  1  0
M  END
>  <target>  (23) 
-4.11

$$$$

     RDKit          3D

 13 13  0  0  0  0  0  0  0  0999 V2000
    5.0422    0.1850   -0.1616 C   0  0  0  0  0  0  0  0  0  0  0  0
    3.5852    0.3966   -0.5325 C   0  0  0  0  0  0  0  0  0  0  0  0
    2.7831   -0.2881    0.4284 O   0  0  0  0  0  0  0  0  0  0  0  0
    1.4276   -0.2173    0.2683 C   0  0  0  0  0  0  0  0  0  0  0  0
    0.6883   -0.9010    1.2334 C   0  0  0  0  0  0  0  0  0  0  0  0
   -0.7093   -0.9096    1.1875 C   0  0  0  0  0  0  0  0  0  0  0  0
   -1.3918   -0.2316    0.1719 C   0  0  0  0  0  0  0  0  0  0  0  0
   -2.8004   -0.2875    0.1927 N   0  0  0  0  0  0  0  0  0  0  0  0
   -3.6804    0.3073   -0.6933 C   0  0  0  0  0  0  0  0  0  0  0  0
   -3.3980    1.0138   -1.6542 O   0  0  0  0  0  0  0  0  0  0  0  0
   -5.1202    0.0245   -0.3423 C   0  0  0  0  0  0  0  0  0  0  0  0
   -0.6497    0.4507   -0.7923 C   0  0  0  0  0  0  0  0  0  0  0  0
    0.7522    0.4588   -0.7453 C   0  0  0  0  0  0  0  0  0  0  0  0
  1  2  1  0
  2  3  1  0
  3  4  1  0
  4  5  2  0
  5  6  1  0
  6  7  2  0
  7  8  1  0
  8  9  1  0
  9 10  2  0
  9 11  1  0
  7 12  1  0
 12 13  2  0
 13  4  1  0
M  END
>  <target>  (24) 
-2.35

$$$$

     RDKit          3D

 22 22  0  0  0  0  0  0  0  0999 V2000
   -3.3796   -1.4907    0.0029 C   0  0  0  0  0  0  0  0  0  0  0  0
   -2.1594   -1.0336   -0.7824 C   0  0  0  0  0  0  0  0  0  0  0  0
   -1.4281    0.0220   -0.0514 N   0  0  0  0  0  0  0  0  0  0  0  0
   -2.0514    1.3604   -0.0115 C   0  0  0  0  0  0  0  0  0  0  0  0
   -2.5580    1.6527    1.3935 C   0  0  0  0  0  0  0  0  0  0  0  0
   -0.0340    0.0102   -0.2360 C   0  0  0  0  0  0  0  0  0  0  0  0
    0.6244    0.3455   -1.4281 C   0  0  0  0  0  0  0  0  0  0  0  0
    2.0223    0.3350   -1.5572 C   0  0  0  0  0  0  0  0  0  0  0  0
    2.8428    0.0081   -0.4607 C   0  0  0  0  0  0  0  0  0  0  0  0
    2.2481   -0.3035    0.7778 C   0  0  0  0  0  0  0  0  0  0  0  0
    3.0459   -0.7624    1.8442 N   0  0  0  0  0  0  0  0  0  0  0  0
    0.8237   -0.3548    0.8302 C   0  0  0  0  0  0  0  0  0  0  0  0
    0.2120   -0.8191    2.0637 N   0  0  0  0  0  0  0  0  0  0  0  0
    0.3683   -0.1041    3.0666 O   0  0  0  0  0  0  0  0  0  0  0  0
   -0.3557   -1.9207    2.0452 O   0  0  0  0  0  0  0  0  0  0  0  0
    4.3394   -0.0311   -0.6786 C   0  0  0  0  0  0  0  0  0  0  0  0
    4.7709   -1.2459   -1.1099 F   0  0  0  0  0  0  0  0  0  0  0  0
    5.0620    0.2572    0.4413 F   0  0  0  0  0  0  0  0  0  0  0  0
    4.7524    0.8662   -1.6180 F   0  0  0  0  0  0  0  0  0  0  0  0
   -0.1209    0.6972   -2.6175 N   0  0  0  0  0  0  0  0  0  0  0  0
   -0.3501   -0.2147   -3.4223 O   0  0  0  0  0  0  0  0  0  0  0  0
   -0.4270    1.8878   -2.7583 O   0  0  0  0  0  0  0  0  0  0  0  0
  1  2  1  0
  2  3  1  0
  3  4  1  0
  4  5  1  0
  3  6  1  0
  6  7  2  0
  7  8  1  0
  8  9  2  0
  9 10  1  0
 10 11  1  0
 10 12  2  0
 12 13  1  0
 13 14  1  0
 13 15  2  0
  9 16  1  0
 16 17  1  0
 16 18  1  0
 16 19  1  0
  7 20  1  0
 20 21  1  0
 20 22  2  0
 12  6  1  0
M  CHG  4  13   1  14  -1  20   1  21  -1
M  END
>  <target>  (25) 
-5.47

$$$$

     RDKit          3D

  8  7  0  0  0  0  0  0  0  0999 V2000
    3.9725    0.5362   -0.1296 C   0  0  0  0  0  0  0  0  0  0  0  0
    2.7562   -0.3580    0.0506 C   0  0  0  0  0  0  0  0  0  0  0  0
    1.4568    0.4442   -0.0146 C   0  0  0  0  0  0  0  0  0  0  0  0
    0.2358   -0.4590    0.1671 C   0  0  0  0  0  0  0  0  0  0  0  0
   -1.0647    0.3436    0.1020 C   0  0  0  0  0  0  0  0  0  0  0  0
   -2.2838   -0.5581    0.2832 C   0  0  0  0  0  0  0  0  0  0  0  0
   -3.5828    0.2345    0.2195 C   0  0  0  0  0  0  0  0  0  0  0  0
   -4.6906   -0.6424    0.3744 O   0  0  0  0  0  0  0  0  0  0  0  0
  1  2  1  0
  2  3  1  0
  3  4  1  0
  4  5  1  0
  5  6  1  0
  6  7  1  0
  7  8  1  0
M  END
>  <target>  (26) 
-1.81

$$$$

     RDKit          3D

 13 14  0  0  0  0  0  0  0  0999 V2000
    2.9852   -0.1557    0.0220 C   0  0  0  0  0  0  0  0  0  0  0  0
    1.5357   -0.1523    0.0387 N   0  0  0  0  0  0  0  0  0  0  0  0
    0.9116    1.1083   -0.0890 C   0  0  0  0  0  0  0  0  0  0  0  0
    1.5818    2.1384   -0.2074 O   0  0  0  0  0  0  0  0  0  0  0  0
   -0.4852    1.1334   -0.0752 N   0  0  0  0  0  0  0  0  0  0  0  0
   -1.2040    2.3878   -0.2012 C   0  0  0  0  0  0  0  0  0  0  0  0
   -1.1762   -0.0459    0.0594 C   0  0  0  0  0  0  0  0  0  0  0  0
   -2.5292   -0.1985    0.0917 N   0  0  0  0  0  0  0  0  0  0  0  0
   -2.7105   -1.4969    0.2331 C   0  0  0  0  0  0  0  0  0  0  0  0
   -1.5191   -2.1733    0.2915 N   0  0  0  0  0  0  0  0  0  0  0  0
   -0.5337   -1.2372    0.1795 C   0  0  0  0  0  0  0  0  0  0  0  0
    0.8764   -1.3761    0.1777 C   0  0  0  0  0  0  0  0  0  0  0  0
    1.4265   -2.4667    0.2882 O   0  0  0  0  0  0  0  0  0  0  0  0
  1  2  1  0
  2  3  1  0
  3  4  2  0
  3  5  1  0
  5  6  1  0
  5  7  1  0
  7  8  1  0
  8  9  2  0
  9 10  1  0
 10 11  1  0
 11 12  1  0
 12 13  2  0
 12  2  1  0
 11  7  2  0
M  END
>  <target>  (27) 
-1.39

$$$$

     RDKit          3D

 15 15  0  0  0  0  0  0  0  0999 V2000
    3.7560    0.8639    1.6450 C   0  0  0  0  0  0  0  0  0  0  0  0
    2.9408   -0.0959    0.7930 C   0  0  0  0  0  0  0  0  0  0  0  0
    1.4680    0.3161    0.7371 C   0  0  0  0  0  0  0  0  0  0  0  0
    0.6540   -0.6631   -0.1269 C   0  0  0  0  0  0  0  0  0  0  0  0
   -0.8494   -0.3107   -0.2591 C   0  0  0  0  0  0  0  0  0  0  0  0
   -1.6118   -1.4067   -1.0648 C   0  0  0  0  0  0  0  0  0  0  0  0
   -1.0588   -1.7095   -2.4533 C   0  0  0  0  0  0  0  0  0  0  0  0
   -1.0431    1.0200   -0.9743 C   0  0  0  0  0  0  0  0  0  0  0  0
   -0.2239    1.5112   -1.7466 O   0  0  0  0  0  0  0  0  0  0  0  0
   -2.2382    1.6462   -0.7538 N   0  0  0  0  0  0  0  0  0  0  0  0
   -2.9243    1.5526    0.4158 C   0  0  0  0  0  0  0  0  0  0  0  0
   -3.6967    2.4343    0.7766 O   0  0  0  0  0  0  0  0  0  0  0  0
   -2.6503    0.4818    1.2076 N   0  0  0  0  0  0  0  0  0  0  0  0
   -1.5192   -0.2817    1.1100 C   0  0  0  0  0  0  0  0  0  0  0  0
   -1.1390   -0.9425    2.0736 O   0  0  0  0  0  0  0  0  0  0  0  0
  1  2  1  0
  2  3  1  0
  3  4  1  0
  4  5  1  0
  5  6  1  0
  6  7  1  0
  5  8  1  0
  8  9  2  0
  8 10  1  0
 10 11  1  0
 11 12  2  0
 11 13  1  0
 13 14  1  0
 14 15  2  0
 14  5  1  0
M  END
>  <target>  (28) 
-1.661

$$$$

     RDKit          3D

 18 19  0  0  0  0  0  0  0  0999 V2000
   -1.2764    0.1260   -3.5649 Cl  0  0  0  0  0  0  0  0  0  0  0  0
    0.1313    0.1428   -2.5395 C   0  0  0  0  0  0  0  0  0  0  0  0
    1.6390    0.2681   -3.4024 Cl  0  0  0  0  0  0  0  0  0  0  0  0
    0.0599    0.0651   -1.1895 C   0  0  0  0  0  0  0  0  0  0  0  0
    1.3025    0.0535   -0.3771 C   0  0  0  0  0  0  0  0  0  0  0  0
    2.0611   -1.1193   -0.2498 C   0  0  0  0  0  0  0  0  0  0  0  0
    3.2218   -1.1261    0.5278 C   0  0  0  0  0  0  0  0  0  0  0  0
    3.6236    0.0367    1.1823 C   0  0  0  0  0  0  0  0  0  0  0  0
    5.0510    0.0267    2.1421 Cl  0  0  0  0  0  0  0  0  0  0  0  0
    2.8756    1.2068    1.0669 C   0  0  0  0  0  0  0  0  0  0  0  0
    1.7149    1.2155    0.2893 C   0  0  0  0  0  0  0  0  0  0  0  0
   -1.2613   -0.0087   -0.5164 C   0  0  0  0  0  0  0  0  0  0  0  0
   -1.7345   -1.2368   -0.0343 C   0  0  0  0  0  0  0  0  0  0  0  0
   -2.9706   -1.3101    0.6127 C   0  0  0  0  0  0  0  0  0  0  0  0
   -3.7336   -0.1563    0.7819 C   0  0  0  0  0  0  0  0  0  0  0  0
   -5.2542   -0.2475    1.5810 Cl  0  0  0  0  0  0  0  0  0  0  0  0
   -3.2723    1.0713    0.3105 C   0  0  0  0  0  0  0  0  0  0  0  0
   -2.0362    1.1463   -0.3363 C   0  0  0  0  0  0  0  0  0  0  0  0
  1  2  1  0
  2  3  1  0
  2  4  2  3
  4  5  1  0
  5  6  2  0
  6  7  1  0
  7  8  2  0
  8  9  1  0
  8 10  1  0
 10 11  2  0
  4 12  1  0
 12 13  2  0
 13 14  1  0
 14 15  2  0
 15 16  1  0
 15 17  1  0
 17 18  2  0
 11  5  1  0
 18 12  1  0
M  END
>  <target>  (29) 
-6.9

$$$$

     RDKit          3D

 11 10  0  0  0  0  0  0  0  0999 V2000
    5.2523    0.0993    0.0168 C   0  0  0  0  0  0  0  0  0  0  0  0
    3.9229    0.4115    0.6853 C   0  0  0  0  0  0  0  0  0  0  0  0
    2.7437   -0.0514   -0.1698 C   0  0  0  0  0  0  0  0  0  0  0  0
    1.4084    0.2645    0.5061 C   0  0  0  0  0  0  0  0  0  0  0  0
    0.2282   -0.1987   -0.3496 C   0  0  0  0  0  0  0  0  0  0  0  0
   -1.1066    0.1171    0.3261 C   0  0  0  0  0  0  0  0  0  0  0  0
   -2.2856   -0.3454   -0.5281 C   0  0  0  0  0  0  0  0  0  0  0  0
   -3.6121   -0.0397    0.1274 C   0  0  0  0  0  0  0  0  0  0  0  0
   -3.7616    0.5097    1.2092 O   0  0  0  0  0  0  0  0  0  0  0  0
   -4.6241   -0.4733   -0.6777 O   0  0  0  0  0  0  0  0  0  0  0  0
   -5.9289   -0.2322   -0.1495 C   0  0  0  0  0  0  0  0  0  0  0  0
  1  2  1  0
  2  3  1  0
  3  4  1  0
  4  5  1  0
  5  6  1  0
  6  7  1  0
  7  8  1  0
  8  9  2  0
  8 10  1  0
 10 11  1  0
M  END
>  <target>  (30) 
-3.17

$$$$

     RDKit          3D

 10 10  0  0  0  0  0  0  0  0999 V2000
   -3.4701    0.4970   -0.7041 C   0  0  0  0  0  0  0  0  0  0  0  0
   -2.8230   -0.8027   -0.2507 C   0  0  0  0  0  0  0  0  0  0  0  0
   -1.3444   -0.6387   -0.0105 C   0  0  0  0  0  0  0  0  0  0  0  0
   -0.4287   -0.8386   -1.0505 C   0  0  0  0  0  0  0  0  0  0  0  0
    0.9408   -0.6705   -0.8321 C   0  0  0  0  0  0  0  0  0  0  0  0
    1.4193   -0.2995    0.4301 C   0  0  0  0  0  0  0  0  0  0  0  0
    2.8951   -0.1008    0.6610 C   0  0  0  0  0  0  0  0  0  0  0  0
    3.3241    1.3310    0.3792 C   0  0  0  0  0  0  0  0  0  0  0  0
    0.5026   -0.0867    1.4666 C   0  0  0  0  0  0  0  0  0  0  0  0
   -0.8669   -0.2548    1.2483 C   0  0  0  0  0  0  0  0  0  0  0  0
  1  2  1  0
  2  3  1  0
  3  4  2  0
  4  5  1  0
  5  6  2  0
  6  7  1  0
  7  8  1  0
  6  9  1  0
  9 10  2  0
 10  3  1  0
M  END
>  <target>  (31) 
-3.75

$$$$

     RDKit          3D

 15 14  0  0  0  0  0  0  0  0999 V2000
    2.4035   -3.4138    0.7042 C   0  0  0  0  0  0  0  0  0  0  0  0
    2.8791   -2.1545    0.0086 C   0  0  0  0  0  0  0  0  0  0  0  0
    1.8277   -1.2022    0.0370 O   0  0  0  0  0  0  0  0  0  0  0  0
    1.9440    0.1407   -0.8758 P   0  0  0  0  0  0  0  0  0  0  0  0
    1.7997   -0.2566   -2.7809 S   0  0  0  0  0  0  0  0  0  0  0  0
    3.4256    0.6407   -0.4302 O   0  0  0  0  0  0  0  0  0  0  0  0
    3.9486    1.8304   -0.9990 C   0  0  0  0  0  0  0  0  0  0  0  0
    5.0655    2.3373   -0.1098 C   0  0  0  0  0  0  0  0  0  0  0  0
    0.5642    1.4749   -0.0235 S   0  0  0  0  0  0  0  0  0  0  0  0
   -0.9842    0.5650   -0.2102 C   0  0  0  0  0  0  0  0  0  0  0  0
   -2.3482    1.5099    0.5277 S   0  0  0  0  0  0  0  0  0  0  0  0
   -3.8138    0.4672    0.0969 C   0  0  0  0  0  0  0  0  0  0  0  0
   -5.0249    1.1232    0.7799 C   0  0  0  0  0  0  0  0  0  0  0  0
   -3.6527   -0.9622    0.6270 C   0  0  0  0  0  0  0  0  0  0  0  0
   -4.0386    0.4560   -1.4197 C   0  0  0  0  0  0  0  0  0  0  0  0
  1  2  1  0
  2  3  1  0
  3  4  1  0
  4  5  2  0
  4  6  1  0
  6  7  1  0
  7  8  1  0
  4  9  1  0
  9 10  1  0
 10 11  1  0
 11 12  1  0
 12 13  1  0
 12 14  1  0
 12 15  1  0
M  END
>  <target>  (32) 
-4.755

$$$$

     RDKit          3D

 22 23  0  0  0  0  0  0  0  0999 V2000
   -6.9356    1.1155    2.0848 C   0  0  0  0  0  0  0  0  0  0  0  0
   -6.3738    1.1844    0.7734 O   0  0  0  0  0  0  0  0  0  0  0  0
   -5.1134    0.6783    0.6847 C   0  0  0  0  0  0  0  0  0  0  0  0
   -4.5040    0.1992    1.6284 O   0  0  0  0  0  0  0  0  0  0  0  0
   -4.6984    0.8080   -0.6099 N   0  0  0  0  0  0  0  0  0  0  0  0
   -3.4661    0.4351   -1.1727 C   0  0  0  0  0  0  0  0  0  0  0  0
   -3.2916    0.6635   -2.5454 C   0  0  0  0  0  0  0  0  0  0  0  0
   -2.0977    0.3118   -3.1842 C   0  0  0  0  0  0  0  0  0  0  0  0
   -1.0625   -0.2670   -2.4556 C   0  0  0  0  0  0  0  0  0  0  0  0
   -1.2301   -0.4698   -1.0882 C   0  0  0  0  0  0  0  0  0  0  0  0
   -0.2410   -1.0950   -0.3120 O   0  0  0  0  0  0  0  0  0  0  0  0
    1.0201   -0.5035   -0.2756 C   0  0  0  0  0  0  0  0  0  0  0  0
    1.3284    0.5170   -0.8738 O   0  0  0  0  0  0  0  0  0  0  0  0
    1.8157   -1.2694    0.5363 N   0  0  0  0  0  0  0  0  0  0  0  0
    3.1681   -1.0812    0.8689 C   0  0  0  0  0  0  0  0  0  0  0  0
    3.7510   -2.0192    1.7292 C   0  0  0  0  0  0  0  0  0  0  0  0
    5.0890   -1.9003    2.1097 C   0  0  0  0  0  0  0  0  0  0  0  0
    5.8594   -0.8435    1.6297 C   0  0  0  0  0  0  0  0  0  0  0  0
    5.2992    0.0956    0.7581 C   0  0  0  0  0  0  0  0  0  0  0  0
    6.1131    1.2557    0.2639 C   0  0  0  0  0  0  0  0  0  0  0  0
    3.9480   -0.0241    0.3926 C   0  0  0  0  0  0  0  0  0  0  0  0
   -2.4256   -0.1426   -0.4448 C   0  0  0  0  0  0  0  0  0  0  0  0
  1  2  1  0
  2  3  1  0
  3  4  2  0
  3  5  1  0
  5  6  1  0
  6  7  2  0
  7  8  1  0
  8  9  2  0
  9 10  1  0
 10 11  1  0
 11 12  1  0
 12 13  2  0
 12 14  1  0
 14 15  1  0
 15 16  2  0
 16 17  1  0
 17 18  2  0
 18 19  1  0
 19 20  1  0
 19 21  2  0
 10 22  2  0
 22  6  1  0
 21 15  1  0
M  END
>  <target>  (33) 
-4.805

$$$$

     RDKit          3D

  4  3  0  0  0  0  0  0  0  0999 V2000
    1.2877   -1.4932    0.8435 Cl  0  0  0  0  0  0  0  0  0  0  0  0
    0.5390   -0.0125    0.3800 C   0  0  0  0  0  0  0  0  0  0  0  0
   -0.7422    0.0172    0.0049 C   0  0  0  0  0  0  0  0  0  0  0  0
    1.4817    1.4292    0.4118 Cl  0  0  0  0  0  0  0  0  0  0  0  0
  1  2  1  0
  2  3  2  0
  2  4  1  0
M  END
>  <target>  (34) 
-1.64

$$$$

     RDKit          3D

 14 16  0  0  0  0  0  0  0  0999 V2000
   -2.9818    1.6508    0.5921 C   0  0  0  0  0  0  0  0  0  0  0  0
   -2.2695    0.4604    0.0309 C   0  0  0  0  0  0  0  0  0  0  0  0
   -2.9723   -0.5844   -0.5857 C   0  0  0  0  0  0  0  0  0  0  0  0
   -2.3017   -1.7024   -1.1127 C   0  0  0  0  0  0  0  0  0  0  0  0
   -0.9105   -1.8061   -1.0375 C   0  0  0  0  0  0  0  0  0  0  0  0
   -0.2066   -0.7803   -0.4308 C   0  0  0  0  0  0  0  0  0  0  0  0
   -0.8846    0.3427    0.0981 C   0  0  0  0  0  0  0  0  0  0  0  0
    0.1161    1.3119    0.7027 C   0  0  0  0  0  0  0  0  0  0  0  0
    1.4337    0.6080    0.4545 C   0  0  0  0  0  0  0  0  0  0  0  0
    2.7076    1.0307    0.7964 C   0  0  0  0  0  0  0  0  0  0  0  0
    3.7831    0.2057    0.4618 C   0  0  0  0  0  0  0  0  0  0  0  0
    3.5733   -1.0153   -0.2017 C   0  0  0  0  0  0  0  0  0  0  0  0
    2.2830   -1.4340   -0.5431 C   0  0  0  0  0  0  0  0  0  0  0  0
    1.2154   -0.6164   -0.2116 C   0  0  0  0  0  0  0  0  0  0  0  0
  1  2  1  0
  2  3  2  0
  3  4  1  0
  4  5  2  0
  5  6  1  0
  6  7  2  0
  7  8  1  0
  8  9  1  0
  9 10  2  0
 10 11  1  0
 11 12  2  0
 12 13  1  0
 13 14  2  0
  7  2  1  0
 14  6  1  0
 14  9  1  0
M  END
>  <target>  (35) 
-5.22

$$$$

     RDKit          3D

  6  5  0  0  0  0  0  0  0  0999 V2000
   -2.3128    0.2531    0.4223 C   0  0  0  0  0  0  0  0  0  0  0  0
   -1.0204   -0.5393    0.3067 C   0  0  0  0  0  0  0  0  0  0  0  0
    0.1188    0.3233   -0.2342 C   0  0  0  0  0  0  0  0  0  0  0  0
    1.4133   -0.4752   -0.3486 C   0  0  0  0  0  0  0  0  0  0  0  0
    2.5597    0.3505   -0.8810 C   0  0  0  0  0  0  0  0  0  0  0  0
    2.4832    1.5338   -1.1937 O   0  0  0  0  0  0  0  0  0  0  0  0
  1  2  1  0
  2  3  1  0
  3  4  1  0
  4  5  1  0
  5  6  2  0
M  END
>  <target>  (36) 
-0.85

$$$$

     RDKit          3D

 13 14  0  0  0  0  0  0  0  0999 V2000
   -0.0120   -1.0477    0.3080 N   0  0  0  0  0  0  0  0  0  0  0  0
   -1.2679   -0.4294    0.4360 C   0  0  0  0  0  0  0  0  0  0  0  0
   -1.4225    0.9315    0.7225 C   0  0  0  0  0  0  0  0  0  0  0  0
   -2.6919    1.5123    0.8040 C   0  0  0  0  0  0  0  0  0  0  0  0
   -3.8289    0.7380    0.5901 C   0  0  0  0  0  0  0  0  0  0  0  0
   -3.6959   -0.6160    0.2967 C   0  0  0  0  0  0  0  0  0  0  0  0
   -2.4248   -1.1923    0.2184 C   0  0  0  0  0  0  0  0  0  0  0  0
    1.2567   -0.5440   -0.0273 C   0  0  0  0  0  0  0  0  0  0  0  0
    1.4403    0.6210   -0.7803 C   0  0  0  0  0  0  0  0  0  0  0  0
    2.7220    1.1061   -1.0587 C   0  0  0  0  0  0  0  0  0  0  0  0
    3.8424    0.4342   -0.5777 C   0  0  0  0  0  0  0  0  0  0  0  0
    3.6806   -0.7224    0.1795 C   0  0  0  0  0  0  0  0  0  0  0  0
    2.3972   -1.2043    0.4532 C   0  0  0  0  0  0  0  0  0  0  0  0
  1  2  1  0
  2  3  2  0
  3  4  1  0
  4  5  2  0
  5  6  1  0
  6  7  2  0
  1  8  1  0
  8  9  2  0
  9 10  1  0
 10 11  2  0
 11 12  1  0
 12 13  2  0
  7  2  1  0
 13  8  1  0
M  END
>  <target>  (37) 
-3.5039999999999996

$$$$

     RDKit          3D

 17 17  0  0  0  0  0  0  0  0999 V2000
    6.6849    0.1054    0.4220 C   0  0  0  0  0  0  0  0  0  0  0  0
    5.3575    0.3074    0.9765 N   0  0  0  0  0  0  0  0  0  0  0  0
    5.2234    0.0633    2.4071 C   0  0  0  0  0  0  0  0  0  0  0  0
    4.2926    0.3915    0.0811 C   0  0  0  0  0  0  0  0  0  0  0  0
    4.4368    0.4518   -1.1352 O   0  0  0  0  0  0  0  0  0  0  0  0
    2.6779    0.3991    0.7849 S   0  0  0  0  0  0  0  0  0  0  0  0
    1.6822    0.4911   -0.7319 C   0  0  0  0  0  0  0  0  0  0  0  0
    0.1955    0.5358   -0.3798 C   0  0  0  0  0  0  0  0  0  0  0  0
   -0.6625    0.6305   -1.6471 C   0  0  0  0  0  0  0  0  0  0  0  0
   -2.1559    0.7225   -1.3325 C   0  0  0  0  0  0  0  0  0  0  0  0
   -2.5687   -0.4844   -0.6937 O   0  0  0  0  0  0  0  0  0  0  0  0
   -3.8884   -0.5875   -0.3487 C   0  0  0  0  0  0  0  0  0  0  0  0
   -4.8740    0.3766   -0.5662 C   0  0  0  0  0  0  0  0  0  0  0  0
   -6.1921    0.1378   -0.1623 C   0  0  0  0  0  0  0  0  0  0  0  0
   -6.5302   -1.0629    0.4598 C   0  0  0  0  0  0  0  0  0  0  0  0
   -5.5505   -2.0279    0.6796 C   0  0  0  0  0  0  0  0  0  0  0  0
   -4.2357   -1.7885    0.2758 C   0  0  0  0  0  0  0  0  0  0  0  0
  1  2  1  0
  2  3  1  0
  2  4  1  0
  4  5  2  0
  4  6  1  0
  6  7  1  0
  7  8  1  0
  8  9  1  0
  9 10  1  0
 10 11  1  0
 11 12  1  0
 12 13  2  0
 13 14  1  0
 14 15  2  0
 15 16  1  0
 16 17  2  0
 17 12  1  0
M  END
>  <target>  (38) 
-3.927

$$$$

     RDKit          3D

 21 21  0  0  0  0  0  0  0  0999 V2000
   -4.3701   -1.9006    1.7602 C   0  0  0  0  0  0  0  0  0  0  0  0
   -3.8432   -2.6259    0.5300 C   0  0  0  0  0  0  0  0  0  0  0  0
   -3.6757   -1.6949   -0.6650 C   0  0  0  0  0  0  0  0  0  0  0  0
   -2.7212   -0.6957   -0.3498 O   0  0  0  0  0  0  0  0  0  0  0  0
   -1.9908    0.1226   -1.5465 P   0  0  0  0  0  0  0  0  0  0  0  0
   -3.2505    1.0503   -2.7165 S   0  0  0  0  0  0  0  0  0  0  0  0
   -1.0985    1.1717   -0.6846 O   0  0  0  0  0  0  0  0  0  0  0  0
   -1.7021    1.8547    0.4039 C   0  0  0  0  0  0  0  0  0  0  0  0
   -0.8680    3.0867    0.7243 C   0  0  0  0  0  0  0  0  0  0  0  0
   -1.4471    3.8745    1.8853 C   0  0  0  0  0  0  0  0  0  0  0  0
   -0.6125   -1.1911   -2.4514 S   0  0  0  0  0  0  0  0  0  0  0  0
    0.1112   -2.1228   -1.0804 C   0  0  0  0  0  0  0  0  0  0  0  0
    0.6545   -1.2089    0.0054 C   0  0  0  0  0  0  0  0  0  0  0  0
    0.0200   -1.0893    1.0576 O   0  0  0  0  0  0  0  0  0  0  0  0
    1.8474   -0.5222   -0.2250 N   0  0  0  0  0  0  0  0  0  0  0  0
    2.3439    0.3284    0.8597 C   0  0  0  0  0  0  0  0  0  0  0  0
    3.0985    1.5484    0.3447 C   0  0  0  0  0  0  0  0  0  0  0  0
    4.1962    1.1536   -0.6337 C   0  0  0  0  0  0  0  0  0  0  0  0
    3.6100    0.3208   -1.7682 C   0  0  0  0  0  0  0  0  0  0  0  0
    2.8249   -0.8998   -1.2651 C   0  0  0  0  0  0  0  0  0  0  0  0
    3.7529   -2.0139   -0.7681 C   0  0  0  0  0  0  0  0  0  0  0  0
  1  2  1  0
  2  3  1  0
  3  4  1  0
  4  5  1  0
  5  6  2  0
  5  7  1  0
  7  8  1  0
  8  9  1  0
  9 10  1  0
  5 11  1  0
 11 12  1  0
 12 13  1  0
 13 14  2  0
 13 15  1  0
 15 16  1  0
 16 17  1  0
 17 18  1  0
 18 19  1  0
 19 20  1  0
 20 21  1  0
 20 15  1  0
M  END
>  <target>  (39) 
-4.15

$$$$

     RDKit          3D

  8  7  0  0  0  0  0  0  0  0999 V2000
    3.8246    0.2404   -0.1736 C   0  0  0  0  0  0  0  0  0  0  0  0
    2.4823   -0.1337   -0.7817 C   0  0  0  0  0  0  0  0  0  0  0  0
    1.3270    0.2040    0.1603 C   0  0  0  0  0  0  0  0  0  0  0  0
   -0.0213   -0.1739   -0.4551 C   0  0  0  0  0  0  0  0  0  0  0  0
   -1.1775    0.1641    0.4876 C   0  0  0  0  0  0  0  0  0  0  0  0
   -2.5266   -0.2139   -0.1279 C   0  0  0  0  0  0  0  0  0  0  0  0
   -3.6782    0.1257    0.8175 C   0  0  0  0  0  0  0  0  0  0  0  0
   -5.5549   -0.4082   -0.0566 I   0  0  0  0  0  0  0  0  0  0  0  0
  1  2  1  0
  2  3  1  0
  3  4  1  0
  4  5  1  0
  5  6  1  0
  6  7  1  0
  7  8  1  0
M  END
>  <target>  (40) 
-4.81

$$$$

     RDKit          3D

 13 14  0  0  0  0  0  0  0  0999 V2000
    1.5241    0.8919   -0.6055 C   0  0  0  0  0  0  0  0  0  0  0  0
    2.9152    0.7794   -0.5863 C   0  0  0  0  0  0  0  0  0  0  0  0
    3.8788    1.9764   -1.3619 Cl  0  0  0  0  0  0  0  0  0  0  0  0
    3.5309   -0.2930    0.0536 C   0  0  0  0  0  0  0  0  0  0  0  0
    2.7490   -1.2612    0.6793 C   0  0  0  0  0  0  0  0  0  0  0  0
    1.3556   -1.1516    0.6612 C   0  0  0  0  0  0  0  0  0  0  0  0
    0.7187   -0.0746    0.0198 C   0  0  0  0  0  0  0  0  0  0  0  0
   -0.7493    0.0373    0.0041 C   0  0  0  0  0  0  0  0  0  0  0  0
   -1.5515   -1.0224   -0.4517 C   0  0  0  0  0  0  0  0  0  0  0  0
   -2.9450   -0.9166   -0.4680 C   0  0  0  0  0  0  0  0  0  0  0  0
   -3.5607    0.2519   -0.0271 C   0  0  0  0  0  0  0  0  0  0  0  0
   -2.7846    1.3142    0.4291 C   0  0  0  0  0  0  0  0  0  0  0  0
   -1.3912    1.2073    0.4437 C   0  0  0  0  0  0  0  0  0  0  0  0
  1  2  2  0
  2  3  1  0
  2  4  1  0
  4  5  2  0
  5  6  1  0
  6  7  2  0
  7  8  1  0
  8  9  2  0
  9 10  1  0
 10 11  2  0
 11 12  1  0
 12 13  2  0
  7  1  1  0
 13  8  1  0
M  END
>  <target>  (41) 
-4.88

$$$$

     RDKit          3D

  6  5  0  0  0  0  0  0  0  0999 V2000
   -2.8058    0.4912   -0.3217 O   0  0  0  0  0  0  0  0  0  0  0  0
   -1.4497    0.4682    0.1084 C   0  0  0  0  0  0  0  0  0  0  0  0
   -0.8185   -0.8449   -0.3360 C   0  0  0  0  0  0  0  0  0  0  0  0
    0.6167   -1.0204    0.1588 C   0  0  0  0  0  0  0  0  0  0  0  0
    1.5670   -0.0172   -0.4302 C   0  0  0  0  0  0  0  0  0  0  0  0
    2.2786    0.8575    0.2919 C   0  0  0  0  0  0  0  0  0  0  0  0
  1  2  1  0
  2  3  1  0
  3  4  1  0
  4  5  1  0
  5  6  2  0
M  END
>  <target>  (42) 
-0.15

$$$$

     RDKit          3D

 12 13  0  0  0  0  0  0  0  0999 V2000
    3.8802   -0.4714    0.2941 O   0  0  0  0  0  0  0  0  0  0  0  0
    2.6642   -0.3288    0.2244 C   0  0  0  0  0  0  0  0  0  0  0  0
    1.8678   -0.4953    1.3066 N   0  0  0  0  0  0  0  0  0  0  0  0
    0.5041   -0.3661    1.3614 C   0  0  0  0  0  0  0  0  0  0  0  0
   -0.0408   -0.5613    2.4550 O   0  0  0  0  0  0  0  0  0  0  0  0
   -0.2658    0.0143    0.0580 C   0  0  0  0  0  0  0  0  0  0  0  0
   -1.2958    1.1862    0.2405 C   0  0  0  0  0  0  0  0  0  0  0  0
   -2.3189    0.3715   -0.5656 C   0  0  0  0  0  0  0  0  0  0  0  0
   -1.5122   -0.8944   -0.2388 C   0  0  0  0  0  0  0  0  0  0  0  0
    0.7130    0.1905   -1.1489 C   0  0  0  0  0  0  0  0  0  0  0  0
    0.3569    0.4915   -2.2948 O   0  0  0  0  0  0  0  0  0  0  0  0
    2.0548    0.0024   -0.9384 N   0  0  0  0  0  0  0  0  0  0  0  0
  1  2  2  0
  2  3  1  0
  3  4  1  0
  4  5  2  0
  4  6  1  0
  6  7  1  0
  7  8  1  0
  8  9  1  0
  6 10  1  0
 10 11  2  0
 10 12  1  0
  9  6  1  0
 12  2  1  0
M  END
>  <target>  (43) 
-1.655

$$$$

     RDKit          3D

 11 11  0  0  0  0  0  0  0  0999 V2000
   -2.7017   -1.1319   -0.1859 C   0  0  0  0  0  0  0  0  0  0  0  0
   -2.1865    0.3098   -0.1987 C   0  0  0  0  0  0  0  0  0  0  0  0
   -2.9031    1.1179    0.8896 C   0  0  0  0  0  0  0  0  0  0  0  0
   -0.6374    0.4350   -0.0842 C   0  0  0  0  0  0  0  0  0  0  0  0
   -0.0635   -0.1372    1.2250 C   0  0  0  0  0  0  0  0  0  0  0  0
    1.4508    0.0568    1.3162 C   0  0  0  0  0  0  0  0  0  0  0  0
    2.1771   -0.5513    0.1116 C   0  0  0  0  0  0  0  0  0  0  0  0
    3.6812   -0.3029    0.2057 C   0  0  0  0  0  0  0  0  0  0  0  0
    1.6155    0.0134   -1.1959 C   0  0  0  0  0  0  0  0  0  0  0  0
    0.1003   -0.1822   -1.2938 C   0  0  0  0  0  0  0  0  0  0  0  0
   -0.3548    0.4060   -2.5097 O   0  0  0  0  0  0  0  0  0  0  0  0
  1  2  1  0
  2  3  1  0
  2  4  1  0
  4  5  1  0
  5  6  1  0
  6  7  1  0
  7  8  1  0
  7  9  1  0
  9 10  1  0
 10 11  1  0
 10  4  1  0
M  END
>  <target>  (44) 
-2.53

$$$$

     RDKit          3D

  6  5  0  0  0  0  0  0  0  0999 V2000
   -1.0798   -0.6856    0.5972 C   0  0  0  0  0  0  0  0  0  0  0  0
   -0.1140    0.0877   -0.2937 C   0  0  0  0  0  0  0  0  0  0  0  0
   -0.5655    1.5348   -0.4495 C   0  0  0  0  0  0  0  0  0  0  0  0
    1.1905    0.1122    0.3155 O   0  0  0  0  0  0  0  0  0  0  0  0
    1.9752   -0.9681    0.0798 C   0  0  0  0  0  0  0  0  0  0  0  0
    1.6910   -1.9490   -0.5876 O   0  0  0  0  0  0  0  0  0  0  0  0
  1  2  1  0
  2  3  1  0
  2  4  1  0
  4  5  1  0
  5  6  2  0
M  END
>  <target>  (45) 
-0.63

$$$$

     RDKit          3D

  8  7  0  0  0  0  0  0  0  0999 V2000
    3.8587    0.0573    0.8209 C   0  0  0  0  0  0  0  0  0  0  0  0
    2.5538   -0.6819    0.5710 C   0  0  0  0  0  0  0  0  0  0  0  0
    1.4146    0.2855    0.2505 C   0  0  0  0  0  0  0  0  0  0  0  0
    0.1036   -0.4622   -0.0006 C   0  0  0  0  0  0  0  0  0  0  0  0
   -1.0373    0.5091   -0.3231 C   0  0  0  0  0  0  0  0  0  0  0  0
   -2.3519   -0.2209   -0.6134 C   0  0  0  0  0  0  0  0  0  0  0  0
   -3.4512    0.7580   -1.0037 C   0  0  0  0  0  0  0  0  0  0  0  0
   -2.7605   -0.9301    0.5528 O   0  0  0  0  0  0  0  0  0  0  0  0
  1  2  1  0
  2  3  1  0
  3  4  1  0
  4  5  1  0
  5  6  1  0
  6  7  1  0
  6  8  1  0
M  END
>  <target>  (46) 
-1.55

$$$$

     RDKit          3D

 11 11  0  0  0  0  0  0  0  0999 V2000
    3.4828   -0.2591    0.3764 C   0  0  0  0  0  0  0  0  0  0  0  0
    2.0594   -0.7546    0.3084 C   0  0  0  0  0  0  0  0  0  0  0  0
    1.8114   -1.9540    0.3510 O   0  0  0  0  0  0  0  0  0  0  0  0
    1.1517    0.2802    0.1700 N   0  0  0  0  0  0  0  0  0  0  0  0
   -0.2516    0.1840    0.0722 C   0  0  0  0  0  0  0  0  0  0  0  0
   -0.9656    1.3817   -0.0746 C   0  0  0  0  0  0  0  0  0  0  0  0
   -2.3601    1.3749   -0.1779 C   0  0  0  0  0  0  0  0  0  0  0  0
   -3.0483    0.1662   -0.1342 C   0  0  0  0  0  0  0  0  0  0  0  0
   -4.9327    0.1511   -0.2732 Br  0  0  0  0  0  0  0  0  0  0  0  0
   -2.3536   -1.0309    0.0118 C   0  0  0  0  0  0  0  0  0  0  0  0
   -0.9576   -1.0204    0.1149 C   0  0  0  0  0  0  0  0  0  0  0  0
  1  2  1  0
  2  3  2  0
  2  4  1  0
  4  5  1  0
  5  6  2  0
  6  7  1  0
  7  8  2  0
  8  9  1  0
  8 10  1  0
 10 11  2  0
 11  5  1  0
M  END
>  <target>  (47) 
-3.083

$$$$

     RDKit          3D

 15 16  0  0  0  0  0  0  0  0999 V2000
   -1.7108   -1.3698   -0.2784 C   0  0  0  0  0  0  0  0  0  0  0  0
   -3.0943   -1.5737   -0.3413 C   0  0  0  0  0  0  0  0  0  0  0  0
   -3.9580   -0.4874   -0.3064 C   0  0  0  0  0  0  0  0  0  0  0  0
   -3.4355    0.7966   -0.2089 C   0  0  0  0  0  0  0  0  0  0  0  0
   -2.0488    0.9967   -0.1462 C   0  0  0  0  0  0  0  0  0  0  0  0
   -1.1492   -0.0793   -0.1799 C   0  0  0  0  0  0  0  0  0  0  0  0
    0.2864    0.0806   -0.1155 N   0  0  0  0  0  0  0  0  0  0  0  0
    0.9680   -1.1204   -0.1437 N   0  0  0  0  0  0  0  0  0  0  0  0
    2.2536   -1.0954   -0.0847 C   0  0  0  0  0  0  0  0  0  0  0  0
    3.1160    0.0972    0.0289 C   0  0  0  0  0  0  0  0  0  0  0  0
    4.4863   -0.1023    0.1062 N   0  0  0  0  0  0  0  0  0  0  0  0
    2.4486    1.2597    0.0387 C   0  0  0  0  0  0  0  0  0  0  0  0
    3.3706    2.8973    0.1789 Br  0  0  0  0  0  0  0  0  0  0  0  0
    0.9480    1.3189   -0.0418 C   0  0  0  0  0  0  0  0  0  0  0  0
    0.4093    2.4261   -0.0313 O   0  0  0  0  0  0  0  0  0  0  0  0
  1  2  2  0
  2  3  1  0
  3  4  2  0
  4  5  1  0
  5  6  2  0
  6  7  1  0
  7  8  1  0
  8  9  2  0
  9 10  1  0
 10 11  1  0
 10 12  2  0
 12 13  1  0
 12 14  1  0
 14 15  2  0
  6  1  1  0
 14  7  1  0
M  END
>  <target>  (48) 
-3.127

$$$$

     RDKit          3D

 25 26  0  0  0  0  0  0  0  0999 V2000
   -0.3267   -3.9336    1.5475 C   0  0  0  0  0  0  0  0  0  0  0  0
   -0.6288   -2.6704    0.9517 O   0  0  0  0  0  0  0  0  0  0  0  0
   -0.2534   -2.5666   -0.3466 C   0  0  0  0  0  0  0  0  0  0  0  0
    0.2879   -3.4363   -1.0100 O   0  0  0  0  0  0  0  0  0  0  0  0
   -0.5935   -1.2131   -0.8435 C   0  0  0  0  0  0  0  0  0  0  0  0
   -1.1088   -1.0280   -2.0813 C   0  0  0  0  0  0  0  0  0  0  0  0
   -1.4442   -2.1393   -3.0447 C   0  0  0  0  0  0  0  0  0  0  0  0
   -1.3939    0.2567   -2.5205 N   0  0  0  0  0  0  0  0  0  0  0  0
   -1.2957    1.3943   -1.7351 C   0  0  0  0  0  0  0  0  0  0  0  0
   -0.7923    1.2925   -0.4862 C   0  0  0  0  0  0  0  0  0  0  0  0
   -0.2972   -0.0309    0.0859 C   0  0  0  0  0  0  0  0  0  0  0  0
    1.2028    0.0352    0.4122 C   0  0  0  0  0  0  0  0  0  0  0  0
    2.1214    0.2769   -0.6318 C   0  0  0  0  0  0  0  0  0  0  0  0
    3.5000    0.3080   -0.3984 C   0  0  0  0  0  0  0  0  0  0  0  0
    4.0031    0.0941    0.8821 C   0  0  0  0  0  0  0  0  0  0  0  0
    3.1274   -0.1467    1.9368 C   0  0  0  0  0  0  0  0  0  0  0  0
    1.7436   -0.1692    1.6977 C   0  0  0  0  0  0  0  0  0  0  0  0
    0.8965   -0.4116    2.8542 N   0  0  0  0  0  0  0  0  0  0  0  0
    0.0910    0.4754    3.1619 O   0  0  0  0  0  0  0  0  0  0  0  0
    1.0657   -1.4761    3.4639 O   0  0  0  0  0  0  0  0  0  0  0  0
   -0.7094    2.4684    0.3962 C   0  0  0  0  0  0  0  0  0  0  0  0
    0.0534    3.4048    0.2251 O   0  0  0  0  0  0  0  0  0  0  0  0
   -1.6225    2.3279    1.3853 O   0  0  0  0  0  0  0  0  0  0  0  0
   -1.6070    3.3883    2.3404 C   0  0  0  0  0  0  0  0  0  0  0  0
   -1.7993    2.6712   -2.3570 C   0  0  0  0  0  0  0  0  0  0  0  0
  1  2  1  0
  2  3  1  0
  3  4  2  0
  3  5  1  0
  5  6  2  0
  6  7  1  0
  6  8  1  0
  8  9  1  0
  9 10  2  0
 10 11  1  0
 11 12  1  0
 12 13  2  0
 13 14  1  0
 14 15  2  0
 15 16  1  0
 16 17  2  0
 17 18  1  0
 18 19  1  0
 18 20  2  0
 10 21  1  0
 21 22  2  0
 21 23  1  0
 23 24  1  0
  9 25  1  0
 11  5  1  0
 17 12  1  0
M  CHG  2  18   1  19  -1
M  END
>  <target>  (49) 
-4.76

$$$$

     RDKit          3D

 12 13  0  0  0  0  0  0  0  0999 V2000
   -2.3483   -0.8871   -0.6101 C   0  0  0  0  0  0  0  0  0  0  0  0
   -2.3323    0.4205   -0.1226 C   0  0  0  0  0  0  0  0  0  0  0  0
   -3.6095    1.1843    0.0620 C   0  0  0  0  0  0  0  0  0  0  0  0
   -1.1050    0.9929    0.2480 C   0  0  0  0  0  0  0  0  0  0  0  0
    0.0986    0.3098    0.1228 C   0  0  0  0  0  0  0  0  0  0  0  0
    1.2448    0.9139    0.4867 N   0  0  0  0  0  0  0  0  0  0  0  0
    2.4081    0.2325    0.3573 C   0  0  0  0  0  0  0  0  0  0  0  0
    3.6646    0.9378    0.7717 C   0  0  0  0  0  0  0  0  0  0  0  0
    2.4673   -1.0643   -0.1346 C   0  0  0  0  0  0  0  0  0  0  0  0
    1.2822   -1.6878   -0.5087 C   0  0  0  0  0  0  0  0  0  0  0  0
    0.0674   -1.0041   -0.3846 C   0  0  0  0  0  0  0  0  0  0  0  0
   -1.1550   -1.5952   -0.7462 C   0  0  0  0  0  0  0  0  0  0  0  0
  1  2  2  0
  2  3  1  0
  2  4  1  0
  4  5  2  0
  5  6  1  0
  6  7  2  0
  7  8  1  0
  7  9  1  0
  9 10  2  0
 10 11  1  0
 11 12  2  0
 11  5  1  0
 12  1  1  0
M  END
>  <target>  (50) 
-1.94

$$$$

     RDKit          3D

  8  7  0  0  0  0  0  0  0  0999 V2000
   -3.6519    0.5890    0.0047 C   0  0  0  0  0  0  0  0  0  0  0  0
   -2.4194   -0.1827    0.4482 C   0  0  0  0  0  0  0  0  0  0  0  0
   -1.1550    0.3430   -0.2309 C   0  0  0  0  0  0  0  0  0  0  0  0
    0.0825   -0.4360    0.2179 C   0  0  0  0  0  0  0  0  0  0  0  0
    1.3482    0.0900   -0.4616 C   0  0  0  0  0  0  0  0  0  0  0  0
    2.5851   -0.6883   -0.0133 C   0  0  0  0  0  0  0  0  0  0  0  0
    3.7984   -0.1786   -0.6693 C   0  0  0  0  0  0  0  0  0  0  0  0
    4.7911    0.2352   -1.2034 C   0  0  0  0  0  0  0  0  0  0  0  0
  1  2  1  0
  2  3  1  0
  3  4  1  0
  4  5  1  0
  5  6  1  0
  6  7  1  0
  7  8  3  0
M  END
>  <target>  (51) 
-3.66

$$$$

     RDKit          3D

 17 18  0  0  0  0  0  0  0  0999 V2000
   -3.0880    1.6087   -0.1876 C   0  0  0  0  0  0  0  0  0  0  0  0
   -1.5732    1.5836   -0.3947 C   0  0  0  0  0  0  0  0  0  0  0  0
   -0.8872    0.2434    0.0064 C   0  0  0  0  0  0  0  0  0  0  0  0
   -1.4564   -0.8478   -0.8995 C   0  0  0  0  0  0  0  0  0  0  0  0
   -1.4078   -0.8039   -2.1293 O   0  0  0  0  0  0  0  0  0  0  0  0
   -2.0413   -1.9245   -0.2936 N   0  0  0  0  0  0  0  0  0  0  0  0
   -2.2119   -2.1175    1.0387 C   0  0  0  0  0  0  0  0  0  0  0  0
   -2.7951   -3.1041    1.4747 O   0  0  0  0  0  0  0  0  0  0  0  0
   -1.7209   -1.1599    1.8652 N   0  0  0  0  0  0  0  0  0  0  0  0
   -1.1480    0.0247    1.4963 C   0  0  0  0  0  0  0  0  0  0  0  0
   -0.8593    0.8488    2.3648 O   0  0  0  0  0  0  0  0  0  0  0  0
    0.6559    0.2301   -0.1856 C   0  0  0  0  0  0  0  0  0  0  0  0
    1.3605    1.2500   -0.7222 C   0  0  0  0  0  0  0  0  0  0  0  0
    2.8550    1.2716   -0.8808 C   0  0  0  0  0  0  0  0  0  0  0  0
    3.5649    0.1682   -0.1029 C   0  0  0  0  0  0  0  0  0  0  0  0
    2.8200   -1.1501   -0.2434 C   0  0  0  0  0  0  0  0  0  0  0  0
    1.3857   -1.0262    0.2765 C   0  0  0  0  0  0  0  0  0  0  0  0
  1  2  1  0
  2  3  1  0
  3  4  1  0
  4  5  2  0
  4  6  1  0
  6  7  1  0
  7  8  2  0
  7  9  1  0
  9 10  1  0
 10 11  2  0
  3 12  1  0
 12 13  2  0
 13 14  1  0
 14 15  1  0
 15 16  1  0
 16 17  1  0
 10  3  1  0
 17 12  1  0
M  END
>  <target>  (52) 
-2.17

$$$$

     RDKit          3D

 18 21  0  0  0  0  0  0  0  0999 V2000
   -4.6646   -0.0330    0.4842 C   0  0  0  0  0  0  0  0  0  0  0  0
   -4.2835    0.4708   -0.7484 C   0  0  0  0  0  0  0  0  0  0  0  0
   -2.9263    0.5589   -1.0761 C   0  0  0  0  0  0  0  0  0  0  0  0
   -1.8961    0.1481   -0.1877 C   0  0  0  0  0  0  0  0  0  0  0  0
   -2.3212   -0.3613    1.0619 C   0  0  0  0  0  0  0  0  0  0  0  0
   -3.6873   -0.4466    1.3838 C   0  0  0  0  0  0  0  0  0  0  0  0
   -1.3755   -0.7854    1.9894 C   0  0  0  0  0  0  0  0  0  0  0  0
   -0.0130   -0.7148    1.7028 C   0  0  0  0  0  0  0  0  0  0  0  0
    0.4809   -0.2186    0.4785 C   0  0  0  0  0  0  0  0  0  0  0  0
    1.8961   -0.1481    0.1877 C   0  0  0  0  0  0  0  0  0  0  0  0
    2.9263   -0.5589    1.0761 C   0  0  0  0  0  0  0  0  0  0  0  0
    4.2835   -0.4708    0.7484 C   0  0  0  0  0  0  0  0  0  0  0  0
    4.6646    0.0330   -0.4842 C   0  0  0  0  0  0  0  0  0  0  0  0
    3.6873    0.4466   -1.3838 C   0  0  0  0  0  0  0  0  0  0  0  0
    2.3212    0.3613   -1.0619 C   0  0  0  0  0  0  0  0  0  0  0  0
    1.3755    0.7854   -1.9894 C   0  0  0  0  0  0  0  0  0  0  0  0
    0.0130    0.7148   -1.7028 C   0  0  0  0  0  0  0  0  0  0  0  0
   -0.4809    0.2186   -0.4785 C   0  0  0  0  0  0  0  0  0  0  0  0
  1  2  2  0
  2  3  1  0
  3  4  2  0
  4  5  1  0
  5  6  2  0
  5  7  1  0
  7  8  2  0
  8  9  1  0
  9 10  2  0
 10 11  1  0
 11 12  2  0
 12 13  1  0
 13 14  2  0
 14 15  1  0
 15 16  2  0
 16 17  1  0
 17 18  2  0
  6  1  1  0
 18  4  1  0
 18  9  1  0
 15 10  1  0
M  END
>  <target>  (53) 
-8.057

$$$$

     RDKit          3D

 14 14  0  0  0  0  0  0  0  0999 V2000
    2.3174    1.7202    0.6570 C   0  0  0  0  0  0  0  0  0  0  0  0
    2.5414    0.3878   -0.0462 C   0  0  0  0  0  0  0  0  0  0  0  0
    1.5841   -0.7157    0.4493 C   0  0  0  0  0  0  0  0  0  0  0  0
    1.9278   -2.0696   -0.1831 C   0  0  0  0  0  0  0  0  0  0  0  0
    0.1572   -0.3780    0.2743 N   0  0  0  0  0  0  0  0  0  0  0  0
   -0.3438   -0.1756   -0.9987 C   0  0  0  0  0  0  0  0  0  0  0  0
    0.3051   -0.2518   -2.0393 O   0  0  0  0  0  0  0  0  0  0  0  0
   -1.6706    0.1324   -1.0836 N   0  0  0  0  0  0  0  0  0  0  0  0
   -2.5349    0.2509   -0.0266 C   0  0  0  0  0  0  0  0  0  0  0  0
   -3.9444    0.6069   -0.4154 C   0  0  0  0  0  0  0  0  0  0  0  0
   -2.0867    0.0496    1.2236 C   0  0  0  0  0  0  0  0  0  0  0  0
   -3.1454    0.1747    2.7632 Br  0  0  0  0  0  0  0  0  0  0  0  0
   -0.6389   -0.3031    1.4159 C   0  0  0  0  0  0  0  0  0  0  0  0
   -0.2034   -0.5108    2.5495 O   0  0  0  0  0  0  0  0  0  0  0  0
  1  2  1  0
  2  3  1  0
  3  4  1  0
  3  5  1  0
  5  6  1  0
  6  7  2  0
  6  8  1  0
  8  9  1  0
  9 10  1  0
  9 11  2  0
 11 12  1  0
 11 13  1  0
 13 14  2  0
 13  5  1  0
M  END
>  <target>  (54) 
-2.523

$$$$

     RDKit          3D

 18 19  0  0  0  0  0  0  0  0999 V2000
    3.8226   -1.7969   -1.9353 Cl  0  0  0  0  0  0  0  0  0  0  0  0
    2.8708   -0.7545   -0.9351 C   0  0  0  0  0  0  0  0  0  0  0  0
    3.5533    0.1972   -0.1721 C   0  0  0  0  0  0  0  0  0  0  0  0
    2.8488    1.0682    0.6549 C   0  0  0  0  0  0  0  0  0  0  0  0
    1.4581    0.9912    0.7223 C   0  0  0  0  0  0  0  0  0  0  0  0
    0.7463    0.0413   -0.0362 C   0  0  0  0  0  0  0  0  0  0  0  0
    1.4708   -0.8385   -0.8728 C   0  0  0  0  0  0  0  0  0  0  0  0
    0.6143   -2.0202   -1.8193 Cl  0  0  0  0  0  0  0  0  0  0  0  0
   -0.7311   -0.0001    0.0707 C   0  0  0  0  0  0  0  0  0  0  0  0
   -1.5440    0.7724   -0.7959 C   0  0  0  0  0  0  0  0  0  0  0  0
   -0.8006    1.8038   -1.9862 Cl  0  0  0  0  0  0  0  0  0  0  0  0
   -2.9437    0.7142   -0.6992 C   0  0  0  0  0  0  0  0  0  0  0  0
   -3.9890    1.6342   -1.7255 Cl  0  0  0  0  0  0  0  0  0  0  0  0
   -3.5498   -0.1039    0.2530 C   0  0  0  0  0  0  0  0  0  0  0  0
   -2.7678   -0.8684    1.1176 C   0  0  0  0  0  0  0  0  0  0  0  0
   -3.6020   -1.8491    2.2730 Cl  0  0  0  0  0  0  0  0  0  0  0  0
   -1.3668   -0.8220    1.0344 C   0  0  0  0  0  0  0  0  0  0  0  0
   -0.4027   -1.7778    2.1253 Cl  0  0  0  0  0  0  0  0  0  0  0  0
  1  2  1  0
  2  3  2  0
  3  4  1  0
  4  5  2  0
  5  6  1  0
  6  7  2  0
  7  8  1  0
  6  9  1  0
  9 10  2  0
 10 11  1  0
 10 12  1  0
 12 13  1  0
 12 14  2  0
 14 15  1  0
 15 16  1  0
 15 17  2  0
 17 18  1  0
  7  2  1  0
 17  9  1  0
M  END
>  <target>  (55) 
-8.6

$$$$

     RDKit          3D

  8  8  0  0  0  0  0  0  0  0999 V2000
   -1.7507   -1.3635    0.0999 C   0  0  0  0  0  0  0  0  0  0  0  0
   -0.4879   -0.5539    0.0532 C   0  0  0  0  0  0  0  0  0  0  0  0
    0.7593   -1.1726    0.2135 C   0  0  0  0  0  0  0  0  0  0  0  0
    1.9352   -0.4206    0.1702 C   0  0  0  0  0  0  0  0  0  0  0  0
    1.8766    0.9571   -0.0337 C   0  0  0  0  0  0  0  0  0  0  0  0
    0.6424    1.5861   -0.1948 C   0  0  0  0  0  0  0  0  0  0  0  0
   -0.5283    0.8293   -0.1505 C   0  0  0  0  0  0  0  0  0  0  0  0
   -1.7445    1.4332   -0.3069 O   0  0  0  0  0  0  0  0  0  0  0  0
  1  2  1  0
  2  3  2  0
  3  4  1  0
  4  5  2  0
  5  6  1  0
  6  7  2  0
  7  8  1  0
  7  2  1  0
M  END
>  <target>  (56) 
-0.62

$$$$

     RDKit          3D

  9  8  0  0  0  0  0  0  0  0999 V2000
    2.6700    1.2205   -0.2400 C   0  0  0  0  0  0  0  0  0  0  0  0
    2.2088   -0.2333   -0.1275 C   0  0  0  0  0  0  0  0  0  0  0  0
    3.0275   -1.1084   -1.0805 C   0  0  0  0  0  0  0  0  0  0  0  0
    0.7049   -0.4019   -0.4263 C   0  0  0  0  0  0  0  0  0  0  0  0
   -0.1982    0.3271    0.5798 C   0  0  0  0  0  0  0  0  0  0  0  0
   -1.7235    0.0807    0.4175 C   0  0  0  0  0  0  0  0  0  0  0  0
   -2.0781   -1.3981    0.6469 C   0  0  0  0  0  0  0  0  0  0  0  0
   -2.4604    0.9263    1.4752 C   0  0  0  0  0  0  0  0  0  0  0  0
   -2.2113    0.5086   -0.9762 C   0  0  0  0  0  0  0  0  0  0  0  0
  1  2  1  0
  2  3  1  0
  2  4  1  0
  4  5  1  0
  5  6  1  0
  6  7  1  0
  6  8  1  0
  6  9  1  0
M  END
>  <target>  (57) 
-5.05

$$$$

     RDKit          3D

 12 13  0  0  0  0  0  0  0  0999 V2000
   -2.3528   -1.9192   -0.4771 C   0  0  0  0  0  0  0  0  0  0  0  0
   -0.9779   -1.3267   -0.3025 C   0  0  0  0  0  0  0  0  0  0  0  0
    0.1282   -2.1776   -0.4234 C   0  0  0  0  0  0  0  0  0  0  0  0
    1.4199   -1.6874   -0.2724 C   0  0  0  0  0  0  0  0  0  0  0  0
    1.6424   -0.3324    0.0038 C   0  0  0  0  0  0  0  0  0  0  0  0
    3.0665    0.1374    0.1563 C   0  0  0  0  0  0  0  0  0  0  0  0
    0.5399    0.5540    0.1319 C   0  0  0  0  0  0  0  0  0  0  0  0
    0.7073    1.9305    0.4100 C   0  0  0  0  0  0  0  0  0  0  0  0
   -0.3789    2.7968    0.5348 C   0  0  0  0  0  0  0  0  0  0  0  0
   -1.6659    2.3084    0.3844 C   0  0  0  0  0  0  0  0  0  0  0  0
   -1.8631    0.9551    0.1095 C   0  0  0  0  0  0  0  0  0  0  0  0
   -0.7827    0.0521   -0.0227 C   0  0  0  0  0  0  0  0  0  0  0  0
  1  2  1  0
  2  3  2  0
  3  4  1  0
  4  5  2  0
  5  6  1  0
  5  7  1  0
  7  8  2  0
  8  9  1  0
  9 10  2  0
 10 11  1  0
 11 12  2  0
 12  2  1  0
 12  7  1  0
M  END
>  <target>  (58) 
-4.14

$$$$

     RDKit          3D

 19 22  0  0  0  0  0  0  0  0999 V2000
   -2.2505   -2.7651   -0.7938 C   0  0  0  0  0  0  0  0  0  0  0  0
   -1.5593   -1.4530   -0.5159 C   0  0  0  0  0  0  0  0  0  0  0  0
   -0.1614   -1.4582   -0.3891 C   0  0  0  0  0  0  0  0  0  0  0  0
    0.6013   -0.3012   -0.1301 C   0  0  0  0  0  0  0  0  0  0  0  0
    2.0439   -0.3382   -0.0045 C   0  0  0  0  0  0  0  0  0  0  0  0
    2.8396   -1.5102   -0.1236 C   0  0  0  0  0  0  0  0  0  0  0  0
    4.2326   -1.4936    0.0063 C   0  0  0  0  0  0  0  0  0  0  0  0
    4.8875   -0.3003    0.2614 C   0  0  0  0  0  0  0  0  0  0  0  0
    4.1470    0.8705    0.3853 C   0  0  0  0  0  0  0  0  0  0  0  0
    2.7468    0.8611    0.2560 C   0  0  0  0  0  0  0  0  0  0  0  0
    2.0444    2.0529    0.3869 C   0  0  0  0  0  0  0  0  0  0  0  0
    0.6559    2.0787    0.2643 C   0  0  0  0  0  0  0  0  0  0  0  0
   -0.1111    0.9216    0.0049 C   0  0  0  0  0  0  0  0  0  0  0  0
   -1.5519    0.9549   -0.1212 C   0  0  0  0  0  0  0  0  0  0  0  0
   -2.3230    2.1436    0.0029 C   0  0  0  0  0  0  0  0  0  0  0  0
   -3.7141    2.1647   -0.1206 C   0  0  0  0  0  0  0  0  0  0  0  0
   -4.3943    0.9902   -0.3749 C   0  0  0  0  0  0  0  0  0  0  0  0
   -3.6783   -0.1967   -0.5038 C   0  0  0  0  0  0  0  0  0  0  0  0
   -2.2682   -0.2433   -0.3827 C   0  0  0  0  0  0  0  0  0  0  0  0
  1  2  1  0
  2  3  2  0
  3  4  1  0
  4  5  2  0
  5  6  1  0
  6  7  2  0
  7  8  1  0
  8  9  2  0
  9 10  1  0
 10 11  2  0
 11 12  1  0
 12 13  2  0
 13 14  1  0
 14 15  2  0
 15 16  1  0
 16 17  2  0
 17 18  1  0
 18 19  2  0
 19  2  1  0
 13  4  1  0
 10  5  1  0
 19 14  1  0
M  END
>  <target>  (59) 
-6.57

$$$$

     RDKit          3D

  6  5  0  0  0  0  0  0  0  0999 V2000
   -2.4594    0.1353    0.1590 C   0  0  0  0  0  0  0  0  0  0  0  0
   -1.1777   -0.4360   -0.4249 C   0  0  0  0  0  0  0  0  0  0  0  0
    0.0571    0.2036    0.2031 C   0  0  0  0  0  0  0  0  0  0  0  0
    1.3520   -0.3508   -0.3639 C   0  0  0  0  0  0  0  0  0  0  0  0
    1.3821   -1.2200   -1.2337 O   0  0  0  0  0  0  0  0  0  0  0  0
    2.6241    0.2263    0.2011 C   0  0  0  0  0  0  0  0  0  0  0  0
  1  2  1  0
  2  3  1  0
  3  4  1  0
  4  5  2  0
  4  6  1  0
M  END
>  <target>  (60) 
-0.19

$$$$

     RDKit          3D

 20 21  0  0  0  0  0  0  0  0999 V2000
   -3.6613    2.3676    1.6164 Cl  0  0  0  0  0  0  0  0  0  0  0  0
   -2.8017    1.1513    0.7376 C   0  0  0  0  0  0  0  0  0  0  0  0
   -3.5616    0.2363    0.0098 C   0  0  0  0  0  0  0  0  0  0  0  0
   -2.9332   -0.7708   -0.7218 C   0  0  0  0  0  0  0  0  0  0  0  0
   -3.9508   -1.8626   -1.5954 Cl  0  0  0  0  0  0  0  0  0  0  0  0
   -1.5330   -0.8707   -0.7309 C   0  0  0  0  0  0  0  0  0  0  0  0
   -0.7559   -2.1312   -1.6470 Cl  0  0  0  0  0  0  0  0  0  0  0  0
   -0.7426    0.0493    0.0021 C   0  0  0  0  0  0  0  0  0  0  0  0
   -1.4006    1.0653    0.7390 C   0  0  0  0  0  0  0  0  0  0  0  0
   -0.4586    2.2117    1.6504 Cl  0  0  0  0  0  0  0  0  0  0  0  0
    0.7426   -0.0493   -0.0020 C   0  0  0  0  0  0  0  0  0  0  0  0
    1.5128    0.6362   -0.9743 C   0  0  0  0  0  0  0  0  0  0  0  0
    0.7104    1.6052   -2.1782 Cl  0  0  0  0  0  0  0  0  0  0  0  0
    2.9131    0.5380   -0.9712 C   0  0  0  0  0  0  0  0  0  0  0  0
    3.9065    1.3503   -2.1305 Cl  0  0  0  0  0  0  0  0  0  0  0  0
    3.5616   -0.2363   -0.0098 C   0  0  0  0  0  0  0  0  0  0  0  0
    2.8218   -0.9185    0.9554 C   0  0  0  0  0  0  0  0  0  0  0  0
    3.7056   -1.8553    2.1095 Cl  0  0  0  0  0  0  0  0  0  0  0  0
    1.4208   -0.8308    0.9662 C   0  0  0  0  0  0  0  0  0  0  0  0
    0.5041   -1.6858    2.1748 Cl  0  0  0  0  0  0  0  0  0  0  0  0
  1  2  1  0
  2  3  2  0
  3  4  1  0
  4  5  1  0
  4  6  2  0
  6  7  1  0
  6  8  1  0
  8  9  2  0
  9 10  1  0
  8 11  1  0
 11 12  2  0
 12 13  1  0
 12 14  1  0
 14 15  1  0
 14 16  2  0
 16 17  1  0
 17 18  1  0
 17 19  2  0
 19 20  1  0
  9  2  1  0
 19 11  1  0
M  END
>  <target>  (61) 
-9.15

$$$$

     RDKit          3D

  8  7  0  0  0  0  0  0  0  0999 V2000
   -3.6265    0.1681    0.0783 C   0  0  0  0  0  0  0  0  0  0  0  0
   -2.2791    0.1141   -0.6189 C   0  0  0  0  0  0  0  0  0  0  0  0
   -1.1275    0.0483    0.3766 C   0  0  0  0  0  0  0  0  0  0  0  0
    0.0987    0.0005   -0.3653 O   0  0  0  0  0  0  0  0  0  0  0  0
    1.2191   -0.0611    0.4096 C   0  0  0  0  0  0  0  0  0  0  0  0
    1.2280   -0.0765    1.6320 O   0  0  0  0  0  0  0  0  0  0  0  0
    2.4392   -0.1069   -0.4786 C   0  0  0  0  0  0  0  0  0  0  0  0
    3.7265   -0.1766    0.3238 C   0  0  0  0  0  0  0  0  0  0  0  0
  1  2  1  0
  2  3  1  0
  3  4  1  0
  4  5  1  0
  5  6  2  0
  5  7  1  0
  7  8  1  0
M  END
>  <target>  (62) 
-0.82

$$$$

     RDKit          3D

 28 31  0  0  0  0  0  0  0  0999 V2000
   -2.4676   -1.7686   -1.6350 C   0  0  0  0  0  0  0  0  0  0  0  0
   -1.6762   -0.7011   -0.8240 C   0  0  0  0  0  0  0  0  0  0  0  0
   -0.7915    0.0501   -1.8425 C   0  0  0  0  0  0  0  0  0  0  0  0
    0.4191    0.8105   -1.2982 C   0  0  0  0  0  0  0  0  0  0  0  0
    0.0021    2.0485   -0.7390 O   0  0  0  0  0  0  0  0  0  0  0  0
    1.2764   -0.0626   -0.3523 C   0  0  0  0  0  0  0  0  0  0  0  0
    1.6780   -1.1471   -1.1134 F   0  0  0  0  0  0  0  0  0  0  0  0
    0.4124   -0.6564    0.7982 C   0  0  0  0  0  0  0  0  0  0  0  0
    1.2693   -1.6076    1.6711 C   0  0  0  0  0  0  0  0  0  0  0  0
    2.5294   -0.9405    2.2092 C   0  0  0  0  0  0  0  0  0  0  0  0
    3.3360   -0.3651    1.0773 C   0  0  0  0  0  0  0  0  0  0  0  0
    4.6024   -0.7675    0.8700 C   0  0  0  0  0  0  0  0  0  0  0  0
    5.4019   -0.2705   -0.2675 C   0  0  0  0  0  0  0  0  0  0  0  0
    6.5611   -0.6282   -0.4348 O   0  0  0  0  0  0  0  0  0  0  0  0
    4.7491    0.6737   -1.1918 C   0  0  0  0  0  0  0  0  0  0  0  0
    3.4884    1.0774   -0.9872 C   0  0  0  0  0  0  0  0  0  0  0  0
    2.5983    0.6382    0.1758 C   0  0  0  0  0  0  0  0  0  0  0  0
    2.3361    1.9148    1.0090 C   0  0  0  0  0  0  0  0  0  0  0  0
   -0.8313   -1.4294    0.2627 C   0  0  0  0  0  0  0  0  0  0  0  0
   -1.8492   -1.7286    1.3900 C   0  0  0  0  0  0  0  0  0  0  0  0
   -3.0312   -0.7691    1.2035 C   0  0  0  0  0  0  0  0  0  0  0  0
   -3.2172    0.0144    2.3901 O   0  0  0  0  0  0  0  0  0  0  0  0
   -2.6465    0.1719    0.0326 C   0  0  0  0  0  0  0  0  0  0  0  0
   -1.9532    1.2845    0.6197 O   0  0  0  0  0  0  0  0  0  0  0  0
   -3.9216    0.6406   -0.7113 C   0  0  0  0  0  0  0  0  0  0  0  0
   -4.9155   -0.0865   -0.8111 O   0  0  0  0  0  0  0  0  0  0  0  0
   -3.8827    1.9933   -1.4272 C   0  0  0  0  0  0  0  0  0  0  0  0
   -3.4267    3.0858   -0.6567 O   0  0  0  0  0  0  0  0  0  0  0  0
  1  2  1  0
  2  3  1  0
  3  4  1  0
  4  5  1  0
  4  6  1  0
  6  7  1  0
  6  8  1  0
  8  9  1  0
  9 10  1  0
 10 11  1  0
 11 12  2  0
 12 13  1  0
 13 14  2  0
 13 15  1  0
 15 16  2  0
 16 17  1  0
 17 18  1  0
  8 19  1  0
 19 20  1  0
 20 21  1  0
 21 22  1  0
 21 23  1  0
 23 24  1  0
 23 25  1  0
 25 26  2  0
 25 27  1  0
 27 28  1  0
 17  6  1  0
 17 11  1  0
 19  2  1  0
 23  2  1  0
M  END
>  <target>  (63) 
-3.68

$$$$

     RDKit          3D

  8  8  0  0  0  0  0  0  0  0999 V2000
   -2.5316    0.4576    0.1181 N   0  0  0  0  0  0  0  0  0  0  0  0
   -1.1594    0.1816    0.1222 C   0  0  0  0  0  0  0  0  0  0  0  0
   -0.2329    1.2161   -0.0432 C   0  0  0  0  0  0  0  0  0  0  0  0
    1.1333    0.9425   -0.1596 C   0  0  0  0  0  0  0  0  0  0  0  0
    1.5670   -0.3780   -0.1523 C   0  0  0  0  0  0  0  0  0  0  0  0
    2.8880   -0.6941   -0.2653 O   0  0  0  0  0  0  0  0  0  0  0  0
    0.6568   -1.4211   -0.0472 C   0  0  0  0  0  0  0  0  0  0  0  0
   -0.7067   -1.1396    0.0673 C   0  0  0  0  0  0  0  0  0  0  0  0
  1  2  1  0
  2  3  2  0
  3  4  1  0
  4  5  2  0
  5  6  1  0
  5  7  1  0
  7  8  2  0
  8  2  1  0
M  END
>  <target>  (64) 
-0.8

$$$$

     RDKit          3D

 19 20  0  0  0  0  0  0  0  0999 V2000
   -0.6910   -1.7128    1.8741 O   0  0  0  0  0  0  0  0  0  0  0  0
   -0.6715   -0.6007    1.3533 C   0  0  0  0  0  0  0  0  0  0  0  0
   -1.7686    0.4172    1.5896 C   0  0  0  0  0  0  0  0  0  0  0  0
   -3.0323   -0.0080    1.0153 N   0  0  0  0  0  0  0  0  0  0  0  0
   -4.0257   -0.6373    1.7317 C   0  0  0  0  0  0  0  0  0  0  0  0
   -5.0633   -0.8159    0.8475 C   0  0  0  0  0  0  0  0  0  0  0  0
   -4.7436   -0.3105   -0.3841 N   0  0  0  0  0  0  0  0  0  0  0  0
   -3.5160    0.1594   -0.2580 C   0  0  0  0  0  0  0  0  0  0  0  0
   -2.8022    0.7736   -1.3491 N   0  0  0  0  0  0  0  0  0  0  0  0
   -1.6014    1.0318   -1.1728 O   0  0  0  0  0  0  0  0  0  0  0  0
   -3.4311    1.0057   -2.3882 O   0  0  0  0  0  0  0  0  0  0  0  0
    0.3393   -0.1778    0.5204 N   0  0  0  0  0  0  0  0  0  0  0  0
    1.3832   -1.0936    0.1188 C   0  0  0  0  0  0  0  0  0  0  0  0
    2.4774   -0.3639   -0.6106 C   0  0  0  0  0  0  0  0  0  0  0  0
    2.3975   -0.1599   -1.9957 C   0  0  0  0  0  0  0  0  0  0  0  0
    3.4020    0.5398   -2.6667 C   0  0  0  0  0  0  0  0  0  0  0  0
    4.4908    1.0478   -1.9605 C   0  0  0  0  0  0  0  0  0  0  0  0
    4.5741    0.8617   -0.5818 C   0  0  0  0  0  0  0  0  0  0  0  0
    3.5704    0.1633    0.0914 C   0  0  0  0  0  0  0  0  0  0  0  0
  1  2  2  0
  2  3  1  0
  3  4  1  0
  4  5  1  0
  5  6  2  0
  6  7  1  0
  7  8  2  0
  8  9  1  0
  9 10  1  0
  9 11  2  0
  2 12  1  0
 12 13  1  0
 13 14  1  0
 14 15  2  0
 15 16  1  0
 16 17  2  0
 17 18  1  0
 18 19  2  0
  8  4  1  0
 19 14  1  0
M  CHG  2   9   1  10  -1
M  END
>  <target>  (65) 
-2.81

$$$$

     RDKit          3D

 26 29  0  0  0  0  0  0  0  0999 V2000
   -2.1765    0.9556    2.5368 O   0  0  0  0  0  0  0  0  0  0  0  0
   -2.6590    0.3423    1.3901 C   0  0  0  0  0  0  0  0  0  0  0  0
   -1.8428   -0.0106    0.3830 C   0  0  0  0  0  0  0  0  0  0  0  0
   -0.3409    0.2361    0.4290 C   0  0  0  0  0  0  0  0  0  0  0  0
    0.4780   -1.0672    0.4154 C   0  0  0  0  0  0  0  0  0  0  0  0
    1.9768   -0.7844    0.5310 C   0  0  0  0  0  0  0  0  0  0  0  0
    2.4544    0.1875   -0.5616 C   0  0  0  0  0  0  0  0  0  0  0  0
    1.6361    1.4899   -0.5420 C   0  0  0  0  0  0  0  0  0  0  0  0
    0.1365    1.2131   -0.6605 C   0  0  0  0  0  0  0  0  0  0  0  0
    3.9454    0.4614   -0.4543 C   0  0  0  0  0  0  0  0  0  0  0  0
    4.7991    0.0930   -1.5061 C   0  0  0  0  0  0  0  0  0  0  0  0
    6.1730    0.3356   -1.4281 C   0  0  0  0  0  0  0  0  0  0  0  0
    6.7043    0.9489   -0.2969 C   0  0  0  0  0  0  0  0  0  0  0  0
    8.3958    1.2478   -0.2003 Cl  0  0  0  0  0  0  0  0  0  0  0  0
    5.8743    1.3216    0.7565 C   0  0  0  0  0  0  0  0  0  0  0  0
    4.5010    1.0788    0.6779 C   0  0  0  0  0  0  0  0  0  0  0  0
   -2.4222   -0.6684   -0.8274 C   0  0  0  0  0  0  0  0  0  0  0  0
   -1.7241   -1.0109   -1.7748 O   0  0  0  0  0  0  0  0  0  0  0  0
   -3.8783   -0.9116   -0.8804 C   0  0  0  0  0  0  0  0  0  0  0  0
   -4.4373   -1.5277   -2.0088 C   0  0  0  0  0  0  0  0  0  0  0  0
   -5.8122   -1.7633   -2.0716 C   0  0  0  0  0  0  0  0  0  0  0  0
   -6.6340   -1.3858   -1.0105 C   0  0  0  0  0  0  0  0  0  0  0  0
   -6.0820   -0.7723    0.1144 C   0  0  0  0  0  0  0  0  0  0  0  0
   -4.7023   -0.5371    0.1750 C   0  0  0  0  0  0  0  0  0  0  0  0
   -4.1263    0.1078    1.3590 C   0  0  0  0  0  0  0  0  0  0  0  0
   -4.8061    0.4589    2.3189 O   0  0  0  0  0  0  0  0  0  0  0  0
  1  2  1  0
  2  3  2  0
  3  4  1  0
  4  5  1  0
  5  6  1  0
  6  7  1  0
  7  8  1  0
  8  9  1  0
  7 10  1  0
 10 11  2  0
 11 12  1  0
 12 13  2  0
 13 14  1  0
 13 15  1  0
 15 16  2  0
  3 17  1  0
 17 18  2  0
 17 19  1  0
 19 20  2  0
 20 21  1  0
 21 22  2  0
 22 23  1  0
 23 24  2  0
 24 25  1  0
 25 26  2  0
  9  4  1  0
 16 10  1  0
 24 19  1  0
 25  2  1  0
M  END
>  <target>  (66) 
-5.931

$$$$

     RDKit          3D

 15 15  0  0  0  0  0  0  0  0999 V2000
    3.6600   -2.5690   -1.3947 C   0  0  0  0  0  0  0  0  0  0  0  0
    2.6107   -1.6318   -0.8177 C   0  0  0  0  0  0  0  0  0  0  0  0
    2.2432   -0.6469   -1.8190 N   0  0  0  0  0  0  0  0  0  0  0  0
    1.3361    0.3142   -1.3880 C   0  0  0  0  0  0  0  0  0  0  0  0
    1.4822    1.5111   -1.9172 N   0  0  0  0  0  0  0  0  0  0  0  0
    0.5854    2.3799   -1.4819 C   0  0  0  0  0  0  0  0  0  0  0  0
    0.7079    3.9616   -2.1215 Cl  0  0  0  0  0  0  0  0  0  0  0  0
   -0.3875    2.1872   -0.6062 N   0  0  0  0  0  0  0  0  0  0  0  0
   -0.4537    0.9551   -0.1291 C   0  0  0  0  0  0  0  0  0  0  0  0
    0.3989    0.0009   -0.4996 N   0  0  0  0  0  0  0  0  0  0  0  0
   -1.4297    0.6508    0.7994 N   0  0  0  0  0  0  0  0  0  0  0  0
   -1.6146   -0.7313    1.2217 C   0  0  0  0  0  0  0  0  0  0  0  0
   -0.7100   -1.0567    2.4012 C   0  0  0  0  0  0  0  0  0  0  0  0
   -2.4388    1.6431    1.1447 C   0  0  0  0  0  0  0  0  0  0  0  0
   -3.5686    1.6641    0.1249 C   0  0  0  0  0  0  0  0  0  0  0  0
  1  2  1  0
  2  3  1  0
  3  4  1  0
  4  5  2  0
  5  6  1  0
  6  7  1  0
  6  8  2  0
  8  9  1  0
  9 10  2  0
  9 11  1  0
 11 12  1  0
 12 13  1  0
 11 14  1  0
 14 15  1  0
 10  4  1  0
M  END
>  <target>  (67) 
-4.06

$$$$

     RDKit          3D

  9  9  0  0  0  0  0  0  0  0999 V2000
    2.3807    0.4442    0.8799 N   0  0  0  0  0  0  0  0  0  0  0  0
    1.7726   -0.3093   -0.0880 C   0  0  0  0  0  0  0  0  0  0  0  0
    2.4089   -1.0385   -0.8372 O   0  0  0  0  0  0  0  0  0  0  0  0
    0.2920   -0.1796   -0.1639 C   0  0  0  0  0  0  0  0  0  0  0  0
   -0.4186   -0.9016   -1.1108 C   0  0  0  0  0  0  0  0  0  0  0  0
   -1.7700   -0.8167   -1.2190 N   0  0  0  0  0  0  0  0  0  0  0  0
   -2.3692    0.0196   -0.3396 C   0  0  0  0  0  0  0  0  0  0  0  0
   -1.6571    0.7416    0.6075 C   0  0  0  0  0  0  0  0  0  0  0  0
   -0.3108    0.6651    0.7247 N   0  0  0  0  0  0  0  0  0  0  0  0
  1  2  1  0
  2  3  2  0
  2  4  1  0
  4  5  2  0
  5  6  1  0
  6  7  2  0
  7  8  1  0
  8  9  2  0
  9  4  1  0
M  END
>  <target>  (68) 
-0.667

$$$$

     RDKit          3D

 12 11  0  0  0  0  0  0  0  0999 V2000
   -1.3808   -1.2895   -1.8797 C   0  0  0  0  0  0  0  0  0  0  0  0
   -1.2288   -1.4611   -0.3720 C   0  0  0  0  0  0  0  0  0  0  0  0
   -0.7179   -0.2018    0.3689 C   0  0  0  0  0  0  0  0  0  0  0  0
   -0.6130   -0.7123    2.2923 Br  0  0  0  0  0  0  0  0  0  0  0  0
   -1.6974    0.9831    0.2254 C   0  0  0  0  0  0  0  0  0  0  0  0
   -1.3753    2.2373    1.0375 C   0  0  0  0  0  0  0  0  0  0  0  0
    0.7188    0.1424   -0.0764 C   0  0  0  0  0  0  0  0  0  0  0  0
    0.9707    1.1310   -0.7680 O   0  0  0  0  0  0  0  0  0  0  0  0
    1.6739   -0.8135    0.2393 N   0  0  0  0  0  0  0  0  0  0  0  0
    3.0261   -0.6529    0.1615 C   0  0  0  0  0  0  0  0  0  0  0  0
    3.4868    0.1850   -0.7924 N   0  0  0  0  0  0  0  0  0  0  0  0
    3.7831   -1.2472    0.9200 O   0  0  0  0  0  0  0  0  0  0  0  0
  1  2  1  0
  2  3  1  0
  3  4  1  0
  3  5  1  0
  5  6  1  0
  3  7  1  0
  7  8  2  0
  7  9  1  0
  9 10  1  0
 10 11  1  0
 10 12  2  0
M  END
>  <target>  (69) 
-2.68

$$$$

     RDKit          3D

 14 15  0  0  0  0  0  0  0  0999 V2000
   -0.6658    1.6390   -2.2322 Cl  0  0  0  0  0  0  0  0  0  0  0  0
   -1.4547    0.8182   -0.9283 C   0  0  0  0  0  0  0  0  0  0  0  0
   -2.8481    0.9184   -0.8495 C   0  0  0  0  0  0  0  0  0  0  0  0
   -3.5411    0.2734    0.1741 C   0  0  0  0  0  0  0  0  0  0  0  0
   -2.8437   -0.4730    1.1198 C   0  0  0  0  0  0  0  0  0  0  0  0
   -1.4526   -0.5746    1.0431 C   0  0  0  0  0  0  0  0  0  0  0  0
   -0.7325    0.0698    0.0200 C   0  0  0  0  0  0  0  0  0  0  0  0
    0.7328   -0.0659   -0.0207 C   0  0  0  0  0  0  0  0  0  0  0  0
    1.3020   -1.1508   -0.7132 C   0  0  0  0  0  0  0  0  0  0  0  0
    2.6874   -1.3185   -0.7773 C   0  0  0  0  0  0  0  0  0  0  0  0
    3.5296   -0.4054   -0.1488 C   0  0  0  0  0  0  0  0  0  0  0  0
    2.9873    0.6756    0.5448 C   0  0  0  0  0  0  0  0  0  0  0  0
    1.6000    0.8457    0.6102 C   0  0  0  0  0  0  0  0  0  0  0  0
    1.0014    2.2064    1.4971 Cl  0  0  0  0  0  0  0  0  0  0  0  0
  1  2  1  0
  2  3  2  0
  3  4  1  0
  4  5  2  0
  5  6  1  0
  6  7  2  0
  7  8  1  0
  8  9  2  0
  9 10  1  0
 10 11  2  0
 11 12  1  0
 12 13  2  0
 13 14  1  0
  7  2  1  0
 13  8  1  0
M  END
>  <target>  (70) 
-5.27

$$$$

     RDKit          3D

 17 18  0  0  0  0  0  0  0  0999 V2000
   -5.5329   -0.3624    0.0528 O   0  0  0  0  0  0  0  0  0  0  0  0
   -4.3547   -0.2308   -0.2419 C   0  0  0  0  0  0  0  0  0  0  0  0
   -3.1778   -0.4963    0.6740 C   0  0  0  0  0  0  0  0  0  0  0  0
   -2.0789   -0.1682   -0.2058 N   0  0  0  0  0  0  0  0  0  0  0  0
   -0.8026   -0.1589    0.2913 N   0  0  0  0  0  0  0  0  0  0  0  0
    0.1988   -0.0161   -0.5181 C   0  0  0  0  0  0  0  0  0  0  0  0
    1.5402    0.0203    0.0058 C   0  0  0  0  0  0  0  0  0  0  0  0
    2.0355   -0.0385    1.2983 C   0  0  0  0  0  0  0  0  0  0  0  0
    3.4492    0.0398    1.2063 C   0  0  0  0  0  0  0  0  0  0  0  0
    3.7202    0.1400   -0.1371 C   0  0  0  0  0  0  0  0  0  0  0  0
    2.5799    0.1304   -0.8807 O   0  0  0  0  0  0  0  0  0  0  0  0
    4.9532    0.2461   -0.8549 N   0  0  0  0  0  0  0  0  0  0  0  0
    4.8957    0.3177   -2.0886 O   0  0  0  0  0  0  0  0  0  0  0  0
    5.9872    0.2553   -0.1724 O   0  0  0  0  0  0  0  0  0  0  0  0
   -2.5396    0.3016   -1.4457 C   0  0  0  0  0  0  0  0  0  0  0  0
   -1.8944    0.7549   -2.3771 O   0  0  0  0  0  0  0  0  0  0  0  0
   -3.8969    0.1938   -1.4472 N   0  0  0  0  0  0  0  0  0  0  0  0
  1  2  2  0
  2  3  1  0
  3  4  1  0
  4  5  1  0
  5  6  2  3
  6  7  1  0
  7  8  2  0
  8  9  1  0
  9 10  2  0
 10 11  1  0
 10 12  1  0
 12 13  1  0
 12 14  2  0
  4 15  1  0
 15 16  2  0
 15 17  1  0
 11  7  1  0
 17  2  1  0
M  CHG  2  12   1  13  -1
M  END
>  <target>  (71) 
-3.38

$$$$

     RDKit          3D

 18 19  0  0  0  0  0  0  0  0999 V2000
   -5.1967    0.6312   -2.0473 Cl  0  0  0  0  0  0  0  0  0  0  0  0
   -3.8792    0.2597   -1.0050 C   0  0  0  0  0  0  0  0  0  0  0  0
   -3.0588    1.2873   -0.5381 C   0  0  0  0  0  0  0  0  0  0  0  0
   -1.9876    0.9907    0.3067 C   0  0  0  0  0  0  0  0  0  0  0  0
   -1.7359   -0.3375    0.6688 C   0  0  0  0  0  0  0  0  0  0  0  0
   -0.7120   -0.6355    1.5388 O   0  0  0  0  0  0  0  0  0  0  0  0
    0.5705   -0.3409    1.1308 C   0  0  0  0  0  0  0  0  0  0  0  0
    1.0264   -0.5202   -0.1796 C   0  0  0  0  0  0  0  0  0  0  0  0
    2.3572   -0.2365   -0.5010 C   0  0  0  0  0  0  0  0  0  0  0  0
    3.2309    0.2127    0.4993 C   0  0  0  0  0  0  0  0  0  0  0  0
    2.7821    0.3752    1.8167 C   0  0  0  0  0  0  0  0  0  0  0  0
    1.4502    0.0900    2.1279 C   0  0  0  0  0  0  0  0  0  0  0  0
    4.6306    0.5069    0.1648 N   0  0  0  0  0  0  0  0  0  0  0  0
    5.3879    0.8350    1.0892 O   0  0  0  0  0  0  0  0  0  0  0  0
    4.9697    0.4131   -1.0234 O   0  0  0  0  0  0  0  0  0  0  0  0
   -2.5770   -1.3601    0.2142 C   0  0  0  0  0  0  0  0  0  0  0  0
   -2.3116   -3.0046    0.6639 Cl  0  0  0  0  0  0  0  0  0  0  0  0
   -3.6463   -1.0630   -0.6317 C   0  0  0  0  0  0  0  0  0  0  0  0
  1  2  1  0
  2  3  2  0
  3  4  1  0
  4  5  2  0
  5  6  1  0
  6  7  1  0
  7  8  2  0
  8  9  1  0
  9 10  2  0
 10 11  1  0
 11 12  2  0
 10 13  1  0
 13 14  1  0
 13 15  2  0
  5 16  1  0
 16 17  1  0
 16 18  2  0
 12  7  1  0
 18  2  1  0
M  CHG  2  13   1  14  -1
M  END
>  <target>  (72) 
-5.46

$$$$

     RDKit          3D

 11 12  0  0  0  0  0  0  0  0999 V2000
   -0.2065   -0.8536   -1.8672 C   0  0  0  0  0  0  0  0  0  0  0  0
   -0.4283   -0.5434   -0.3740 C   0  0  0  0  0  0  0  0  0  0  0  0
   -1.0424   -1.8125    0.2515 C   0  0  0  0  0  0  0  0  0  0  0  0
   -1.2425    0.7555   -0.1177 C   0  0  0  0  0  0  0  0  0  0  0  0
   -0.3185    1.8634   -0.6847 C   0  0  0  0  0  0  0  0  0  0  0  0
    1.0978    1.3606   -0.3255 C   0  0  0  0  0  0  0  0  0  0  0  0
    0.8168    0.0099    0.3725 C   0  0  0  0  0  0  0  0  0  0  0  0
    2.0147   -0.8974    0.5165 C   0  0  0  0  0  0  0  0  0  0  0  0
    0.1679    0.4277    1.6961 C   0  0  0  0  0  0  0  0  0  0  0  0
    0.6982    0.4055    2.7958 O   0  0  0  0  0  0  0  0  0  0  0  0
   -1.2447    0.9054    1.4238 C   0  0  0  0  0  0  0  0  0  0  0  0
  1  2  1  0
  2  3  1  0
  2  4  1  0
  4  5  1  0
  5  6  1  0
  6  7  1  0
  7  8  1  0
  7  9  1  0
  9 10  2  0
  9 11  1  0
  7  2  1  0
 11  4  1  0
M  END
>  <target>  (73) 
-1.96

$$$$

     RDKit          3D

 18 19  0  0  0  0  0  0  0  0999 V2000
    1.3377   -0.2242    2.3296 O   0  0  0  0  0  0  0  0  0  0  0  0
    1.0621    0.4658    1.3481 C   0  0  0  0  0  0  0  0  0  0  0  0
    1.2589    1.8187    1.4037 N   0  0  0  0  0  0  0  0  0  0  0  0
    1.5344    2.5825    0.3165 C   0  0  0  0  0  0  0  0  0  0  0  0
    2.1326    3.6484    0.4195 O   0  0  0  0  0  0  0  0  0  0  0  0
    1.2053    2.0697   -0.8963 N   0  0  0  0  0  0  0  0  0  0  0  0
    0.9521    0.7456   -1.1365 C   0  0  0  0  0  0  0  0  0  0  0  0
    1.0822    0.3095   -2.2806 O   0  0  0  0  0  0  0  0  0  0  0  0
    0.4387   -0.0782    0.0544 C   0  0  0  0  0  0  0  0  0  0  0  0
    0.8206   -1.5730   -0.1399 C   0  0  0  0  0  0  0  0  0  0  0  0
    2.3036   -1.8675   -0.1518 C   0  0  0  0  0  0  0  0  0  0  0  0
    2.9966   -2.1902   -1.2508 C   0  0  0  0  0  0  0  0  0  0  0  0
   -1.1135   -0.0076    0.1357 C   0  0  0  0  0  0  0  0  0  0  0  0
   -1.7855   -0.1737    1.3630 C   0  0  0  0  0  0  0  0  0  0  0  0
   -3.1804   -0.1284    1.4366 C   0  0  0  0  0  0  0  0  0  0  0  0
   -3.9356    0.0657    0.2853 C   0  0  0  0  0  0  0  0  0  0  0  0
   -3.2972    0.2015   -0.9427 C   0  0  0  0  0  0  0  0  0  0  0  0
   -1.9023    0.1566   -1.0195 C   0  0  0  0  0  0  0  0  0  0  0  0
  1  2  2  0
  2  3  1  0
  3  4  1  0
  4  5  2  0
  4  6  1  0
  6  7  1  0
  7  8  2  0
  7  9  1  0
  9 10  1  0
 10 11  1  0
 11 12  2  0
  9 13  1  0
 13 14  2  0
 14 15  1  0
 15 16  2  0
 16 17  1  0
 17 18  2  0
  9  2  1  0
 18 13  1  0
M  END
>  <target>  (74) 
-2.369

$$$$

     RDKit          3D

  9  8  0  0  0  0  0  0  0  0999 V2000
    3.6222    0.3227   -0.9913 C   0  0  0  0  0  0  0  0  0  0  0  0
    2.2966    0.4779   -0.2623 C   0  0  0  0  0  0  0  0  0  0  0  0
    1.7980   -0.8634    0.2813 C   0  0  0  0  0  0  0  0  0  0  0  0
    0.4797   -0.7308    1.0434 C   0  0  0  0  0  0  0  0  0  0  0  0
   -0.7049   -0.4710    0.1407 C   0  0  0  0  0  0  0  0  0  0  0  0
   -0.7232   -0.6280   -1.0716 O   0  0  0  0  0  0  0  0  0  0  0  0
   -1.7660   -0.0608    0.8928 O   0  0  0  0  0  0  0  0  0  0  0  0
   -2.9545    0.2011    0.1370 C   0  0  0  0  0  0  0  0  0  0  0  0
   -4.0370    0.6524    1.0980 C   0  0  0  0  0  0  0  0  0  0  0  0
  1  2  1  0
  2  3  1  0
  3  4  1  0
  4  5  1  0
  5  6  2  0
  5  7  1  0
  7  8  1  0
  8  9  1  0
M  END
>  <target>  (75) 
-2.25

$$$$

     RDKit          3D

  9  8  0  0  0  0  0  0  0  0999 V2000
   -3.0584   -0.8074   -0.2343 C   0  0  0  0  0  0  0  0  0  0  0  0
   -1.9057    0.1992   -0.2543 C   0  0  0  0  0  0  0  0  0  0  0  0
   -2.1591    1.2956    0.7812 C   0  0  0  0  0  0  0  0  0  0  0  0
   -0.5724   -0.5297   -0.0215 C   0  0  0  0  0  0  0  0  0  0  0  0
    0.6532    0.3700   -0.1608 C   0  0  0  0  0  0  0  0  0  0  0  0
    1.8217   -0.4537   -0.0321 O   0  0  0  0  0  0  0  0  0  0  0  0
    2.9968    0.2229   -0.1504 C   0  0  0  0  0  0  0  0  0  0  0  0
    3.1087    1.4243   -0.3484 O   0  0  0  0  0  0  0  0  0  0  0  0
    4.1491   -0.7226   -0.0020 C   0  0  0  0  0  0  0  0  0  0  0  0
  1  2  1  0
  2  3  1  0
  2  4  1  0
  4  5  1  0
  5  6  1  0
  6  7  1  0
  7  8  2  0
  7  9  1  0
M  END
>  <target>  (76) 
-1.92

$$$$

     RDKit          3D

 28 30  0  0  0  0  0  0  0  0999 V2000
   -0.1708   -1.2222    2.5949 O   0  0  0  0  0  0  0  0  0  0  0  0
   -0.8433   -0.9857    1.6055 C   0  0  0  0  0  0  0  0  0  0  0  0
   -0.4618   -1.0665    0.3101 N   0  0  0  0  0  0  0  0  0  0  0  0
    0.8622   -1.4046   -0.1303 C   0  0  0  0  0  0  0  0  0  0  0  0
    1.5886   -0.1858   -0.2852 O   0  0  0  0  0  0  0  0  0  0  0  0
    2.8635   -0.3773   -0.7177 C   0  0  0  0  0  0  0  0  0  0  0  0
    3.3617   -1.4667   -0.9623 O   0  0  0  0  0  0  0  0  0  0  0  0
    3.5489    0.9603   -0.8783 C   0  0  0  0  0  0  0  0  0  0  0  0
    5.0673    0.8444   -1.0093 C   0  0  0  0  0  0  0  0  0  0  0  0
    5.7414    0.4673    0.3136 C   0  0  0  0  0  0  0  0  0  0  0  0
    7.2601    0.3853    0.1574 C   0  0  0  0  0  0  0  0  0  0  0  0
    7.9357    0.0140    1.4679 C   0  0  0  0  0  0  0  0  0  0  0  0
   -1.4988   -0.7422   -0.5187 C   0  0  0  0  0  0  0  0  0  0  0  0
   -1.4473   -0.7539   -1.7447 O   0  0  0  0  0  0  0  0  0  0  0  0
   -2.7399   -0.3622    0.3505 C   0  0  0  0  0  0  0  0  0  0  0  0
   -2.1537   -0.5926    1.6585 N   0  0  0  0  0  0  0  0  0  0  0  0
   -3.0853    1.1168    0.1123 C   0  0  0  0  0  0  0  0  0  0  0  0
   -2.8050    2.1221    1.0563 C   0  0  0  0  0  0  0  0  0  0  0  0
   -3.1218    3.4585    0.7979 C   0  0  0  0  0  0  0  0  0  0  0  0
   -3.7197    3.8164   -0.4071 C   0  0  0  0  0  0  0  0  0  0  0  0
   -4.0003    2.8401   -1.3579 C   0  0  0  0  0  0  0  0  0  0  0  0
   -3.6847    1.5043   -1.1026 C   0  0  0  0  0  0  0  0  0  0  0  0
   -3.9491   -1.2969    0.2031 C   0  0  0  0  0  0  0  0  0  0  0  0
   -5.1024   -1.0645    0.9833 C   0  0  0  0  0  0  0  0  0  0  0  0
   -6.2201   -1.8966    0.8907 C   0  0  0  0  0  0  0  0  0  0  0  0
   -6.2085   -2.9809    0.0198 C   0  0  0  0  0  0  0  0  0  0  0  0
   -5.0818   -3.2317   -0.7583 C   0  0  0  0  0  0  0  0  0  0  0  0
   -3.9617   -2.3996   -0.6682 C   0  0  0  0  0  0  0  0  0  0  0  0
  1  2  2  0
  2  3  1  0
  3  4  1  0
  4  5  1  0
  5  6  1  0
  6  7  2  0
  6  8  1  0
  8  9  1  0
  9 10  1  0
 10 11  1  0
 11 12  1  0
  3 13  1  0
 13 14  2  0
 13 15  1  0
 15 16  1  0
 15 17  1  0
 17 18  2  0
 18 19  1  0
 19 20  2  0
 20 21  1  0
 21 22  2  0
 15 23  1  0
 23 24  2  0
 24 25  1  0
 25 26  2  0
 26 27  1  0
 27 28  2  0
 16  2  1  0
 22 17  1  0
 28 23  1  0
M  END
>  <target>  (77) 
-5.886

$$$$

     RDKit          3D

 15 16  0  0  0  0  0  0  0  0999 V2000
   -4.0151   -1.5208   -1.5516 Cl  0  0  0  0  0  0  0  0  0  0  0  0
   -2.9590   -0.4622   -0.6995 C   0  0  0  0  0  0  0  0  0  0  0  0
   -3.4787    0.6535   -0.0473 C   0  0  0  0  0  0  0  0  0  0  0  0
   -2.6226    1.5117    0.6404 C   0  0  0  0  0  0  0  0  0  0  0  0
   -1.2507    1.2500    0.6729 C   0  0  0  0  0  0  0  0  0  0  0  0
   -0.7162    0.1263    0.0212 C   0  0  0  0  0  0  0  0  0  0  0  0
   -1.5897   -0.7276   -0.6703 C   0  0  0  0  0  0  0  0  0  0  0  0
    0.7290   -0.1396    0.0514 C   0  0  0  0  0  0  0  0  0  0  0  0
    1.5791    0.6236   -0.7715 C   0  0  0  0  0  0  0  0  0  0  0  0
    2.9569    0.4022   -0.7765 C   0  0  0  0  0  0  0  0  0  0  0  0
    3.9701    1.3500   -1.7932 Cl  0  0  0  0  0  0  0  0  0  0  0  0
    3.5175   -0.5796    0.0349 C   0  0  0  0  0  0  0  0  0  0  0  0
    2.6931   -1.3456    0.8593 C   0  0  0  0  0  0  0  0  0  0  0  0
    1.3100   -1.1286    0.8696 C   0  0  0  0  0  0  0  0  0  0  0  0
    0.3589   -2.1083    1.9325 Cl  0  0  0  0  0  0  0  0  0  0  0  0
  1  2  1  0
  2  3  2  0
  3  4  1  0
  4  5  2  0
  5  6  1  0
  6  7  2  0
  6  8  1  0
  8  9  2  0
  9 10  1  0
 10 11  1  0
 10 12  2  0
 12 13  1  0
 13 14  2  0
 14 15  1  0
  7  2  1  0
 14  8  1  0
M  END
>  <target>  (78) 
-6.01

$$$$

     RDKit          3D

  4  3  0  0  0  0  0  0  0  0999 V2000
   -1.3380    0.1093    0.1379 C   0  0  0  0  0  0  0  0  0  0  0  0
   -0.0066   -0.5436   -0.1969 C   0  0  0  0  0  0  0  0  0  0  0  0
    1.1506    0.4043    0.0624 C   0  0  0  0  0  0  0  0  0  0  0  0
    2.8319   -0.4720   -0.3792 Br  0  0  0  0  0  0  0  0  0  0  0  0
  1  2  1  0
  2  3  1  0
  3  4  1  0
M  END
>  <target>  (79) 
-1.73

$$$$

     RDKit          3D

 22 24  0  0  0  0  0  0  0  0999 V2000
    4.7811    0.4038    2.1121 C   0  0  0  0  0  0  0  0  0  0  0  0
    4.0385    0.2849    0.7904 C   0  0  0  0  0  0  0  0  0  0  0  0
    2.5401    0.5184    0.9698 C   0  0  0  0  0  0  0  0  0  0  0  0
    1.7726    0.4668   -0.3450 C   0  0  0  0  0  0  0  0  0  0  0  0
    1.7772   -0.8704   -1.0370 C   0  0  0  0  0  0  0  0  0  0  0  0
    0.6354   -0.7768   -1.8842 O   0  0  0  0  0  0  0  0  0  0  0  0
   -0.3444   -0.0300   -1.1267 C   0  0  0  0  0  0  0  0  0  0  0  0
   -1.0097    0.9925   -2.0649 C   0  0  0  0  0  0  0  0  0  0  0  0
   -2.0625    1.7514   -1.4307 N   0  0  0  0  0  0  0  0  0  0  0  0
   -1.9371    2.7942   -0.5661 C   0  0  0  0  0  0  0  0  0  0  0  0
   -3.1288    3.2313   -0.2303 N   0  0  0  0  0  0  0  0  0  0  0  0
   -3.9648    2.4166   -0.9395 C   0  0  0  0  0  0  0  0  0  0  0  0
   -3.3580    1.4990   -1.6968 N   0  0  0  0  0  0  0  0  0  0  0  0
    0.3808    0.7085   -0.1055 O   0  0  0  0  0  0  0  0  0  0  0  0
   -1.3303   -1.0054   -0.4749 C   0  0  0  0  0  0  0  0  0  0  0  0
   -1.6136   -0.8897    0.9050 C   0  0  0  0  0  0  0  0  0  0  0  0
   -2.5197   -1.7428    1.5403 C   0  0  0  0  0  0  0  0  0  0  0  0
   -3.1659   -2.7295    0.8077 C   0  0  0  0  0  0  0  0  0  0  0  0
   -4.2800   -3.7828    1.5871 Cl  0  0  0  0  0  0  0  0  0  0  0  0
   -2.9161   -2.8680   -0.5523 C   0  0  0  0  0  0  0  0  0  0  0  0
   -2.0086   -2.0128   -1.1916 C   0  0  0  0  0  0  0  0  0  0  0  0
   -1.7863   -2.2767   -2.8868 Cl  0  0  0  0  0  0  0  0  0  0  0  0
  1  2  1  0
  2  3  1  0
  3  4  1  0
  4  5  1  0
  5  6  1  0
  6  7  1  0
  7  8  1  0
  8  9  1  0
  9 10  1  0
 10 11  2  0
 11 12  1  0
 12 13  2  0
  7 14  1  0
  7 15  1  0
 15 16  2  0
 16 17  1  0
 17 18  2  0
 18 19  1  0
 18 20  1  0
 20 21  2  0
 21 22  1  0
 14  4  1  0
 13  9  1  0
 21 15  1  0
M  END
>  <target>  (80) 
-3.4930000000000003

$$$$

     RDKit          3D

 14 13  0  0  0  0  0  0  0  0999 V2000
   -1.6627    1.6789    1.4509 C   0  0  0  0  0  0  0  0  0  0  0  0
   -1.0421    1.5740    0.1823 O   0  0  0  0  0  0  0  0  0  0  0  0
   -1.7669    0.6967   -0.9862 P   0  0  0  0  0  0  0  0  0  0  0  0
   -3.5803    1.3044   -1.3628 S   0  0  0  0  0  0  0  0  0  0  0  0
   -1.7136   -0.7572   -0.2653 O   0  0  0  0  0  0  0  0  0  0  0  0
   -2.2063   -1.8848   -0.9651 C   0  0  0  0  0  0  0  0  0  0  0  0
   -0.3638    0.6958   -2.5621 S   0  0  0  0  0  0  0  0  0  0  0  0
    1.2268    0.6775   -1.6886 C   0  0  0  0  0  0  0  0  0  0  0  0
    1.3357   -0.5389   -0.7752 C   0  0  0  0  0  0  0  0  0  0  0  0
    0.9937   -1.6586   -1.1652 O   0  0  0  0  0  0  0  0  0  0  0  0
    1.8640   -0.3334    0.5001 N   0  0  0  0  0  0  0  0  0  0  0  0
    1.6997   -1.4116    1.4574 C   0  0  0  0  0  0  0  0  0  0  0  0
    2.8309    0.6153    0.8079 C   0  0  0  0  0  0  0  0  0  0  0  0
    3.4881    0.6621    1.8414 O   0  0  0  0  0  0  0  0  0  0  0  0
  1  2  1  0
  2  3  1  0
  3  4  2  0
  3  5  1  0
  5  6  1  0
  3  7  1  0
  7  8  1  0
  8  9  1  0
  9 10  2  0
  9 11  1  0
 11 12  1  0
 11 13  1  0
 13 14  2  0
M  END
>  <target>  (81) 
-1.995

$$$$

     RDKit          3D

 11 12  0  0  0  0  0  0  0  0999 V2000
    2.2801   -0.9587    0.1435 C   0  0  0  0  0  0  0  0  0  0  0  0
    1.2524    0.1336    0.2303 C   0  0  0  0  0  0  0  0  0  0  0  0
    1.7077    1.3590    0.5842 N   0  0  0  0  0  0  0  0  0  0  0  0
    0.7872    2.3228    0.6586 C   0  0  0  0  0  0  0  0  0  0  0  0
   -0.5164    2.1768    0.4172 N   0  0  0  0  0  0  0  0  0  0  0  0
   -0.9367    0.9624    0.0715 C   0  0  0  0  0  0  0  0  0  0  0  0
   -2.2441    0.8134   -0.1712 N   0  0  0  0  0  0  0  0  0  0  0  0
   -2.6878   -0.4137   -0.5235 C   0  0  0  0  0  0  0  0  0  0  0  0
   -1.8458   -1.4961   -0.6376 C   0  0  0  0  0  0  0  0  0  0  0  0
   -0.5250   -1.3876   -0.4022 N   0  0  0  0  0  0  0  0  0  0  0  0
   -0.0782   -0.1476   -0.0463 C   0  0  0  0  0  0  0  0  0  0  0  0
  1  2  1  0
  2  3  2  0
  3  4  1  0
  4  5  2  0
  5  6  1  0
  6  7  2  0
  7  8  1  0
  8  9  2  0
  9 10  1  0
 10 11  2  0
 11  2  1  0
 11  6  1  0
M  END
>  <target>  (82) 
-0.466

$$$$

     RDKit          3D

  4  3  0  0  0  0  0  0  0  0999 V2000
    1.0844   -0.4362   -0.0202 N   0  0  0  0  0  0  0  0  0  0  0  0
    0.0589    0.4397   -0.0087 C   0  0  0  0  0  0  0  0  0  0  0  0
    0.2780    2.0750   -0.0410 S   0  0  0  0  0  0  0  0  0  0  0  0
   -1.1609   -0.1343    0.0315 N   0  0  0  0  0  0  0  0  0  0  0  0
  1  2  1  0
  2  3  2  0
  2  4  1  0
M  END
>  <target>  (83) 
0.32

$$$$

     RDKit          3D

  8  8  0  0  0  0  0  0  0  0999 V2000
   -2.9076   -0.0399   -0.0166 C   0  0  0  0  0  0  0  0  0  0  0  0
   -1.4083   -0.0177   -0.0384 C   0  0  0  0  0  0  0  0  0  0  0  0
   -0.6815   -1.2125   -0.0819 C   0  0  0  0  0  0  0  0  0  0  0  0
    0.7155   -1.1935   -0.0703 C   0  0  0  0  0  0  0  0  0  0  0  0
    1.4087    0.0206   -0.0149 C   0  0  0  0  0  0  0  0  0  0  0  0
    2.9075    0.0391    0.0318 C   0  0  0  0  0  0  0  0  0  0  0  0
    0.6817    1.2137    0.0582 C   0  0  0  0  0  0  0  0  0  0  0  0
   -0.7153    1.1947    0.0466 C   0  0  0  0  0  0  0  0  0  0  0  0
  1  2  1  0
  2  3  2  0
  3  4  1  0
  4  5  2  0
  5  6  1  0
  5  7  1  0
  7  8  2  0
  8  2  1  0
M  END
>  <target>  (84) 
-2.77

$$$$

     RDKit          3D

 10 10  0  0  0  0  0  0  0  0999 V2000
   -1.7303   -2.1251    0.2082 C   0  0  0  0  0  0  0  0  0  0  0  0
   -0.7895   -1.4456   -0.7762 C   0  0  0  0  0  0  0  0  0  0  0  0
   -0.6037    0.0212   -0.4594 C   0  0  0  0  0  0  0  0  0  0  0  0
   -1.5144    0.9376   -1.0177 C   0  0  0  0  0  0  0  0  0  0  0  0
   -1.4122    2.3039   -0.7599 C   0  0  0  0  0  0  0  0  0  0  0  0
   -0.3985    2.7780    0.0633 C   0  0  0  0  0  0  0  0  0  0  0  0
    0.5089    1.8845    0.6309 C   0  0  0  0  0  0  0  0  0  0  0  0
    0.4176    0.5012    0.3878 C   0  0  0  0  0  0  0  0  0  0  0  0
    1.4475   -0.4011    1.0294 C   0  0  0  0  0  0  0  0  0  0  0  0
    2.6863   -0.5582    0.1596 C   0  0  0  0  0  0  0  0  0  0  0  0
  1  2  1  0
  2  3  1  0
  3  4  2  0
  4  5  1  0
  5  6  2  0
  6  7  1  0
  7  8  2  0
  8  9  1  0
  9 10  1  0
  8  3  1  0
M  END
>  <target>  (85) 
-3.28

$$$$

     RDKit          3D

  8  7  0  0  0  0  0  0  0  0999 V2000
   -1.3393    1.4626   -1.0237 Cl  0  0  0  0  0  0  0  0  0  0  0  0
   -0.7797    0.0332   -0.0577 C   0  0  0  0  0  0  0  0  0  0  0  0
   -1.5860    0.1603    1.5619 Cl  0  0  0  0  0  0  0  0  0  0  0  0
   -1.4746   -1.4354   -0.8637 Cl  0  0  0  0  0  0  0  0  0  0  0  0
    0.7797   -0.0332    0.0577 C   0  0  0  0  0  0  0  0  0  0  0  0
    1.5860   -0.1603   -1.5619 Cl  0  0  0  0  0  0  0  0  0  0  0  0
    1.3393   -1.4626    1.0237 Cl  0  0  0  0  0  0  0  0  0  0  0  0
    1.4746    1.4354    0.8637 Cl  0  0  0  0  0  0  0  0  0  0  0  0
  1  2  1  0
  2  3  1  0
  2  4  1  0
  2  5  1  0
  5  6  1  0
  5  7  1  0
  5  8  1  0
M  END
>  <target>  (86) 
-3.67

$$$$

     RDKit          3D

 33 35  0  0  0  0  0  0  0  0999 V2000
   -5.2600   -1.5862   -0.7136 C   0  0  0  0  0  0  0  0  0  0  0  0
   -3.9499   -1.9255   -1.4378 C   0  0  0  0  0  0  0  0  0  0  0  0
   -3.7678   -3.4508   -1.4261 C   0  0  0  0  0  0  0  0  0  0  0  0
   -2.7294   -1.2089   -0.7923 C   0  0  0  0  0  0  0  0  0  0  0  0
   -1.4401   -1.5604   -1.5340 C   0  0  0  0  0  0  0  0  0  0  0  0
   -1.2976   -1.5360   -2.7494 O   0  0  0  0  0  0  0  0  0  0  0  0
   -0.4607   -1.8965   -0.6516 O   0  0  0  0  0  0  0  0  0  0  0  0
    0.8019   -2.2408   -1.2607 C   0  0  0  0  0  0  0  0  0  0  0  0
    0.7867   -3.6350   -1.7613 C   0  0  0  0  0  0  0  0  0  0  0  0
    0.7569   -4.7343   -2.1379 N   0  0  0  0  0  0  0  0  0  0  0  0
    1.8698   -2.0373   -0.1960 C   0  0  0  0  0  0  0  0  0  0  0  0
    1.7989   -2.6981    1.0441 C   0  0  0  0  0  0  0  0  0  0  0  0
    2.7921   -2.5149    2.0087 C   0  0  0  0  0  0  0  0  0  0  0  0
    3.8645   -1.6617    1.7546 C   0  0  0  0  0  0  0  0  0  0  0  0
    3.9328   -0.9792    0.5394 C   0  0  0  0  0  0  0  0  0  0  0  0
    4.9808   -0.1491    0.2109 O   0  0  0  0  0  0  0  0  0  0  0  0
    5.3685    0.7818    1.1481 C   0  0  0  0  0  0  0  0  0  0  0  0
    4.4597    1.6129    1.8084 C   0  0  0  0  0  0  0  0  0  0  0  0
    4.9256    2.5620    2.7199 C   0  0  0  0  0  0  0  0  0  0  0  0
    6.2948    2.6899    2.9578 C   0  0  0  0  0  0  0  0  0  0  0  0
    7.2019    1.8748    2.2798 C   0  0  0  0  0  0  0  0  0  0  0  0
    6.7390    0.9249    1.3685 C   0  0  0  0  0  0  0  0  0  0  0  0
    2.9553   -1.1789   -0.4382 C   0  0  0  0  0  0  0  0  0  0  0  0
   -2.8735    0.3053   -0.7116 C   0  0  0  0  0  0  0  0  0  0  0  0
   -2.7948    0.9513    0.5289 C   0  0  0  0  0  0  0  0  0  0  0  0
   -2.9218    2.3401    0.6135 C   0  0  0  0  0  0  0  0  0  0  0  0
   -3.1331    3.1100   -0.5320 C   0  0  0  0  0  0  0  0  0  0  0  0
   -3.2388    4.4533   -0.3063 O   0  0  0  0  0  0  0  0  0  0  0  0
   -3.7505    5.2361   -1.3713 C   0  0  0  0  0  0  0  0  0  0  0  0
   -3.9605    6.4871   -0.8885 F   0  0  0  0  0  0  0  0  0  0  0  0
   -2.8053    5.3480   -2.3371 F   0  0  0  0  0  0  0  0  0  0  0  0
   -3.1939    2.4776   -1.7729 C   0  0  0  0  0  0  0  0  0  0  0  0
   -3.0669    1.0864   -1.8609 C   0  0  0  0  0  0  0  0  0  0  0  0
  1  2  1  0
  2  3  1  0
  2  4  1  0
  4  5  1  0
  5  6  2  0
  5  7  1  0
  7  8  1  0
  8  9  1  0
  9 10  3  0
  8 11  1  0
 11 12  2  0
 12 13  1  0
 13 14  2  0
 14 15  1  0
 15 16  1  0
 16 17  1  0
 17 18  2  0
 18 19  1  0
 19 20  2  0
 20 21  1  0
 21 22  2  0
 15 23  2  0
  4 24  1  0
 24 25  2  0
 25 26  1  0
 26 27  2  0
 27 28  1  0
 28 29  1  0
 29 30  1  0
 29 31  1  0
 27 32  1  0
 32 33  2  0
 23 11  1  0
 22 17  1  0
 33 24  1  0
M  END
>  <target>  (87) 
-6.876

$$$$

     RDKit          3D

  6  5  0  0  0  0  0  0  0  0999 V2000
   -1.7642   -0.0339   -0.1925 C   0  0  0  0  0  0  0  0  0  0  0  0
   -0.4129    0.0329    0.5003 C   0  0  0  0  0  0  0  0  0  0  0  0
    0.7250   -0.0301   -0.5079 C   0  0  0  0  0  0  0  0  0  0  0  0
    2.0228    0.0401    0.2378 N   0  0  0  0  0  0  0  0  0  0  0  0
    2.4966    1.1652    0.4385 O   0  0  0  0  0  0  0  0  0  0  0  0
    2.5208   -1.0319    0.6032 O   0  0  0  0  0  0  0  0  0  0  0  0
  1  2  1  0
  2  3  1  0
  3  4  1  0
  4  5  1  0
  4  6  2  0
M  CHG  2   4   1   5  -1
M  END
>  <target>  (88) 
-0.8

$$$$

     RDKit          3D

 11 11  0  0  0  0  0  0  0  0999 V2000
   -3.0460   -0.1734   -1.1168 C   0  0  0  0  0  0  0  0  0  0  0  0
   -2.2074   -0.3689    0.1510 C   0  0  0  0  0  0  0  0  0  0  0  0
   -2.5572    0.7214    1.1687 C   0  0  0  0  0  0  0  0  0  0  0  0
   -0.6956   -0.4542   -0.1825 C   0  0  0  0  0  0  0  0  0  0  0  0
   -0.0635    0.8822   -0.5963 C   0  0  0  0  0  0  0  0  0  0  0  0
    1.4235    0.7295   -0.9223 C   0  0  0  0  0  0  0  0  0  0  0  0
    2.1956    0.1701    0.2795 C   0  0  0  0  0  0  0  0  0  0  0  0
    3.6801    0.0303   -0.0505 C   0  0  0  0  0  0  0  0  0  0  0  0
    1.6148   -1.1733    0.7214 C   0  0  0  0  0  0  0  0  0  0  0  0
    0.1228   -1.0631    0.9592 C   0  0  0  0  0  0  0  0  0  0  0  0
   -0.3866   -1.5312    1.9763 O   0  0  0  0  0  0  0  0  0  0  0  0
  1  2  1  0
  2  3  1  0
  2  4  1  0
  4  5  1  0
  5  6  1  0
  6  7  1  0
  7  8  1  0
  7  9  1  0
  9 10  1  0
 10 11  2  0
 10  4  1  0
M  END
>  <target>  (89) 
-2.35

$$$$

     RDKit          3D

 19 21  0  0  0  0  0  0  0  0999 V2000
   -0.8249   -2.5174   -1.9235 C   0  0  0  0  0  0  0  0  0  0  0  0
    0.1340   -2.1221   -0.8006 C   0  0  0  0  0  0  0  0  0  0  0  0
    0.0655   -0.6753   -0.5087 N   0  0  0  0  0  0  0  0  0  0  0  0
    1.2714   -0.0213   -0.1635 C   0  0  0  0  0  0  0  0  0  0  0  0
    2.3583   -0.7273    0.3951 C   0  0  0  0  0  0  0  0  0  0  0  0
    3.5822   -0.1061    0.6480 C   0  0  0  0  0  0  0  0  0  0  0  0
    4.8793   -1.0128    1.3234 Cl  0  0  0  0  0  0  0  0  0  0  0  0
    3.7625    1.2355    0.3496 C   0  0  0  0  0  0  0  0  0  0  0  0
    2.6982    1.9625   -0.1779 C   0  0  0  0  0  0  0  0  0  0  0  0
    1.4490    1.3559   -0.4008 C   0  0  0  0  0  0  0  0  0  0  0  0
    0.4556    2.1950   -0.9218 N   0  0  0  0  0  0  0  0  0  0  0  0
   -0.9090    2.0949   -0.8896 C   0  0  0  0  0  0  0  0  0  0  0  0
   -1.5674    2.9845   -1.4349 O   0  0  0  0  0  0  0  0  0  0  0  0
   -1.6183    1.0565   -0.1209 C   0  0  0  0  0  0  0  0  0  0  0  0
   -2.8676    1.4119    0.4192 C   0  0  0  0  0  0  0  0  0  0  0  0
   -3.6263    0.4747    1.1052 C   0  0  0  0  0  0  0  0  0  0  0  0
   -3.1144   -0.7987    1.2155 C   0  0  0  0  0  0  0  0  0  0  0  0
   -1.9255   -1.1731    0.6951 N   0  0  0  0  0  0  0  0  0  0  0  0
   -1.1686   -0.2524    0.0290 C   0  0  0  0  0  0  0  0  0  0  0  0
  1  2  1  0
  2  3  1  0
  3  4  1  0
  4  5  2  0
  5  6  1  0
  6  7  1  0
  6  8  2  0
  8  9  1  0
  9 10  2  0
 10 11  1  0
 11 12  1  0
 12 13  2  0
 12 14  1  0
 14 15  2  0
 15 16  1  0
 16 17  2  0
 17 18  1  0
 18 19  2  0
 10  4  1  0
 19  3  1  0
 19 14  1  0
M  END
>  <target>  (90) 
-5.36

$$$$

     RDKit          3D

 11 11  0  0  0  0  0  0  0  0999 V2000
    2.9157   -0.3166    0.9407 O   0  0  0  0  0  0  0  0  0  0  0  0
    2.3138    0.0439   -0.0782 N   0  0  0  0  0  0  0  0  0  0  0  0
    2.8284    0.3941   -1.1471 O   0  0  0  0  0  0  0  0  0  0  0  0
    0.8737   -0.0018   -0.0317 C   0  0  0  0  0  0  0  0  0  0  0  0
    0.1426    1.1633    0.2112 C   0  0  0  0  0  0  0  0  0  0  0  0
    0.9280    2.6832    0.4830 Cl  0  0  0  0  0  0  0  0  0  0  0  0
   -1.2545    1.0576    0.2392 C   0  0  0  0  0  0  0  0  0  0  0  0
   -2.2824    2.4186    0.5288 Cl  0  0  0  0  0  0  0  0  0  0  0  0
   -1.8803   -0.1816    0.0308 C   0  0  0  0  0  0  0  0  0  0  0  0
   -1.1238   -1.3313   -0.2062 C   0  0  0  0  0  0  0  0  0  0  0  0
    0.2645   -1.2475   -0.2383 C   0  0  0  0  0  0  0  0  0  0  0  0
  1  2  1  0
  2  3  2  0
  2  4  1  0
  4  5  2  0
  5  6  1  0
  5  7  1  0
  7  8  1  0
  7  9  2  0
  9 10  1  0
 10 11  2  0
 11  4  1  0
M  CHG  2   1  -1   2   1
M  END
>  <target>  (91) 
-3.48

$$$$

     RDKit          3D

 17 17  0  0  0  0  0  0  0  0999 V2000
    3.8380   -1.4402    1.1751 C   0  0  0  0  0  0  0  0  0  0  0  0
    3.1479   -0.3048    0.4329 C   0  0  0  0  0  0  0  0  0  0  0  0
    1.6225   -0.4254    0.5252 C   0  0  0  0  0  0  0  0  0  0  0  0
    0.8562    0.6083   -0.3461 C   0  0  0  0  0  0  0  0  0  0  0  0
    1.1639    2.0408    0.1220 C   0  0  0  0  0  0  0  0  0  0  0  0
   -0.6903    0.2830   -0.4441 C   0  0  0  0  0  0  0  0  0  0  0  0
   -1.4589    1.3787   -1.2368 C   0  0  0  0  0  0  0  0  0  0  0  0
   -2.8974    1.0353   -1.5514 C   0  0  0  0  0  0  0  0  0  0  0  0
   -3.9478    1.5382   -0.8911 C   0  0  0  0  0  0  0  0  0  0  0  0
   -0.8156   -1.0152   -1.2347 C   0  0  0  0  0  0  0  0  0  0  0  0
   -0.5107   -1.1069   -2.4241 O   0  0  0  0  0  0  0  0  0  0  0  0
   -1.2503   -2.1261   -0.5661 N   0  0  0  0  0  0  0  0  0  0  0  0
   -1.6578   -2.1757    0.7265 C   0  0  0  0  0  0  0  0  0  0  0  0
   -2.1760   -3.5971    1.4132 S   0  0  0  0  0  0  0  0  0  0  0  0
   -1.6325   -1.0194    1.4347 N   0  0  0  0  0  0  0  0  0  0  0  0
   -1.2908    0.2148    0.9541 C   0  0  0  0  0  0  0  0  0  0  0  0
   -1.4465    1.2019    1.6727 O   0  0  0  0  0  0  0  0  0  0  0  0
  1  2  1  0
  2  3  1  0
  3  4  1  0
  4  5  1  0
  4  6  1  0
  6  7  1  0
  7  8  1  0
  8  9  2  0
  6 10  1  0
 10 11  2  0
 10 12  1  0
 12 13  1  0
 13 14  2  0
 13 15  1  0
 15 16  1  0
 16 17  2  0
 16  6  1  0
M  END
>  <target>  (92) 
-3.46

$$$$

     RDKit          3D

 16 19  0  0  0  0  0  0  0  0999 V2000
    3.7021    0.1240   -0.1717 C   0  0  0  0  0  0  0  0  0  0  0  0
    3.4049    1.4596    0.1633 C   0  0  0  0  0  0  0  0  0  0  0  0
    2.0835    1.8838    0.3364 C   0  0  0  0  0  0  0  0  0  0  0  0
    1.0794    0.9491    0.1679 C   0  0  0  0  0  0  0  0  0  0  0  0
    1.3799   -0.4011   -0.1708 C   0  0  0  0  0  0  0  0  0  0  0  0
    2.6854   -0.8212   -0.3421 C   0  0  0  0  0  0  0  0  0  0  0  0
    0.1104   -1.1091   -0.2708 C   0  0  0  0  0  0  0  0  0  0  0  0
   -0.2200   -2.4192   -0.5656 C   0  0  0  0  0  0  0  0  0  0  0  0
   -1.5795   -2.7810   -0.5780 C   0  0  0  0  0  0  0  0  0  0  0  0
   -2.5948   -1.8398   -0.2981 C   0  0  0  0  0  0  0  0  0  0  0  0
   -2.2627   -0.5042    0.0027 C   0  0  0  0  0  0  0  0  0  0  0  0
   -3.1298    0.5642    0.3049 C   0  0  0  0  0  0  0  0  0  0  0  0
   -2.6095    1.8476    0.5830 C   0  0  0  0  0  0  0  0  0  0  0  0
   -1.2250    2.0973    0.5673 C   0  0  0  0  0  0  0  0  0  0  0  0
   -0.3703    1.0512    0.2711 C   0  0  0  0  0  0  0  0  0  0  0  0
   -0.9034   -0.2013    0.0011 C   0  0  0  0  0  0  0  0  0  0  0  0
  1  2  2  0
  2  3  1  0
  3  4  2  0
  4  5  1  0
  5  6  2  0
  5  7  1  0
  7  8  2  0
  8  9  1  0
  9 10  2  0
 10 11  1  0
 11 12  1  0
 12 13  2  0
 13 14  1  0
 14 15  2  0
 15 16  1  0
  6  1  1  0
 15  4  1  0
 16  7  1  0
 16 11  2  0
M  END
>  <target>  (93) 
-6.0

$$$$

     RDKit          3D

  7  6  0  0  0  0  0  0  0  0999 V2000
    3.3197   -0.0329    0.3585 C   0  0  0  0  0  0  0  0  0  0  0  0
    2.0741    0.2839   -0.4494 C   0  0  0  0  0  0  0  0  0  0  0  0
    0.7999    0.0063    0.3392 C   0  0  0  0  0  0  0  0  0  0  0  0
   -0.3137    0.3328   -0.4904 O   0  0  0  0  0  0  0  0  0  0  0  0
   -1.5779    0.1867    0.1624 C   0  0  0  0  0  0  0  0  0  0  0  0
   -2.5901    0.9945   -0.6423 C   0  0  0  0  0  0  0  0  0  0  0  0
   -1.9957   -1.2794    0.2157 C   0  0  0  0  0  0  0  0  0  0  0  0
  1  2  1  0
  2  3  1  0
  3  4  1  0
  4  5  1  0
  5  6  1  0
  5  7  1  0
M  END
>  <target>  (94) 
-1.34

$$$$

     RDKit          3D

 12 13  0  0  0  0  0  0  0  0999 V2000
    3.3685   -0.8605   -0.0697 C   0  0  0  0  0  0  0  0  0  0  0  0
    1.9277   -0.4440   -0.0608 C   0  0  0  0  0  0  0  0  0  0  0  0
    1.5773    0.8932    0.1380 C   0  0  0  0  0  0  0  0  0  0  0  0
    0.2304    1.2938    0.1800 C   0  0  0  0  0  0  0  0  0  0  0  0
   -0.0772    2.7537    0.3892 C   0  0  0  0  0  0  0  0  0  0  0  0
   -0.7999    0.3277    0.0298 C   0  0  0  0  0  0  0  0  0  0  0  0
   -2.1766    0.6463    0.0592 C   0  0  0  0  0  0  0  0  0  0  0  0
   -3.1596   -0.3352   -0.0885 C   0  0  0  0  0  0  0  0  0  0  0  0
   -2.7918   -1.6616   -0.2690 C   0  0  0  0  0  0  0  0  0  0  0  0
   -1.4416   -2.0060   -0.3025 C   0  0  0  0  0  0  0  0  0  0  0  0
   -0.4410   -1.0302   -0.1566 C   0  0  0  0  0  0  0  0  0  0  0  0
    0.9135   -1.3967   -0.1937 C   0  0  0  0  0  0  0  0  0  0  0  0
  1  2  1  0
  2  3  2  0
  3  4  1  0
  4  5  1  0
  4  6  2  0
  6  7  1  0
  7  8  2  0
  8  9  1  0
  9 10  2  0
 10 11  1  0
 11 12  2  0
 12  2  1  0
 11  6  1  0
M  END
>  <target>  (95) 
-4.29

$$$$

     RDKit          3D

 20 21  0  0  0  0  0  0  0  0999 V2000
   -1.8941    3.1028   -0.7695 C   0  0  0  0  0  0  0  0  0  0  0  0
   -1.3505    2.4608    0.5006 C   0  0  0  0  0  0  0  0  0  0  0  0
   -0.5952    1.1755    0.2138 C   0  0  0  0  0  0  0  0  0  0  0  0
    0.7555    1.0963    0.0951 C   0  0  0  0  0  0  0  0  0  0  0  0
    1.6861    2.2948    0.1461 C   0  0  0  0  0  0  0  0  0  0  0  0
    2.2891    2.4949    1.5307 C   0  0  0  0  0  0  0  0  0  0  0  0
    1.4522   -0.1901   -0.1467 C   0  0  0  0  0  0  0  0  0  0  0  0
    1.5573   -1.1457    0.8738 C   0  0  0  0  0  0  0  0  0  0  0  0
    2.2055   -2.3616    0.6436 C   0  0  0  0  0  0  0  0  0  0  0  0
    2.7521   -2.6174   -0.6098 C   0  0  0  0  0  0  0  0  0  0  0  0
    3.3912   -3.7915   -0.8790 O   0  0  0  0  0  0  0  0  0  0  0  0
    2.6619   -1.6804   -1.6319 C   0  0  0  0  0  0  0  0  0  0  0  0
    2.0116   -0.4667   -1.4017 C   0  0  0  0  0  0  0  0  0  0  0  0
   -1.4670   -0.0201    0.1181 C   0  0  0  0  0  0  0  0  0  0  0  0
   -2.0828   -0.5404    1.2647 C   0  0  0  0  0  0  0  0  0  0  0  0
   -2.8984   -1.6699    1.1764 C   0  0  0  0  0  0  0  0  0  0  0  0
   -3.0976   -2.2799   -0.0562 C   0  0  0  0  0  0  0  0  0  0  0  0
   -3.8975   -3.3836   -0.0967 O   0  0  0  0  0  0  0  0  0  0  0  0
   -2.4975   -1.7782   -1.2065 C   0  0  0  0  0  0  0  0  0  0  0  0
   -1.6837   -0.6463   -1.1175 C   0  0  0  0  0  0  0  0  0  0  0  0
  1  2  1  0
  2  3  1  0
  3  4  2  3
  4  5  1  0
  5  6  1  0
  4  7  1  0
  7  8  2  0
  8  9  1  0
  9 10  2  0
 10 11  1  0
 10 12  1  0
 12 13  2  0
  3 14  1  0
 14 15  2  0
 15 16  1  0
 16 17  2  0
 17 18  1  0
 17 19  1  0
 19 20  2  0
 13  7  1  0
 20 14  1  0
M  END
>  <target>  (96) 
-4.07

$$$$

     RDKit          3D

 14 14  0  0  0  0  0  0  0  0999 V2000
    1.2753    0.2384   -0.0433 C   0  0  0  0  0  0  0  0  0  0  0  0
    2.7120    0.2430   -0.0843 C   0  0  0  0  0  0  0  0  0  0  0  0
    3.8713    0.2439   -0.1174 N   0  0  0  0  0  0  0  0  0  0  0  0
    0.5727   -0.9794    0.0123 C   0  0  0  0  0  0  0  0  0  0  0  0
    1.4517   -2.4828    0.0312 Cl  0  0  0  0  0  0  0  0  0  0  0  0
   -0.8337   -0.9935    0.0528 C   0  0  0  0  0  0  0  0  0  0  0  0
   -1.5429   -2.2424    0.1094 C   0  0  0  0  0  0  0  0  0  0  0  0
   -2.1128   -3.2515    0.1551 N   0  0  0  0  0  0  0  0  0  0  0  0
   -1.5402    0.2218    0.0374 C   0  0  0  0  0  0  0  0  0  0  0  0
   -3.2810    0.2034    0.0875 Cl  0  0  0  0  0  0  0  0  0  0  0  0
   -0.8448    1.4448   -0.0181 C   0  0  0  0  0  0  0  0  0  0  0  0
   -1.7233    2.9473   -0.0370 Cl  0  0  0  0  0  0  0  0  0  0  0  0
    0.5626    1.4501   -0.0584 C   0  0  0  0  0  0  0  0  0  0  0  0
    1.4331    2.9570   -0.1272 Cl  0  0  0  0  0  0  0  0  0  0  0  0
  1  2  1  0
  2  3  3  0
  1  4  2  0
  4  5  1  0
  4  6  1  0
  6  7  1  0
  7  8  3  0
  6  9  2  0
  9 10  1  0
  9 11  1  0
 11 12  1  0
 11 13  2  0
 13 14  1  0
 13  1  1  0
M  END
>  <target>  (97) 
-5.64

$$$$

     RDKit          3D

 16 17  0  0  0  0  0  0  0  0999 V2000
   -3.7351    0.7068    2.5615 Cl  0  0  0  0  0  0  0  0  0  0  0  0
   -2.8833    0.2847    1.1281 C   0  0  0  0  0  0  0  0  0  0  0  0
   -3.5909   -0.0658   -0.0179 C   0  0  0  0  0  0  0  0  0  0  0  0
   -2.8969   -0.4090   -1.1784 C   0  0  0  0  0  0  0  0  0  0  0  0
   -1.4972   -0.3997   -1.1901 C   0  0  0  0  0  0  0  0  0  0  0  0
   -0.7094   -0.8537   -2.6621 Cl  0  0  0  0  0  0  0  0  0  0  0  0
   -0.7681   -0.0444   -0.0377 C   0  0  0  0  0  0  0  0  0  0  0  0
   -1.4876    0.2964    1.1234 C   0  0  0  0  0  0  0  0  0  0  0  0
    0.7007   -0.0157    0.0007 C   0  0  0  0  0  0  0  0  0  0  0  0
    1.4202   -1.0484    0.6203 C   0  0  0  0  0  0  0  0  0  0  0  0
    2.8172   -1.0209    0.6613 C   0  0  0  0  0  0  0  0  0  0  0  0
    3.5164    0.0422    0.0852 C   0  0  0  0  0  0  0  0  0  0  0  0
    5.2412    0.0128    0.1740 Cl  0  0  0  0  0  0  0  0  0  0  0  0
    2.8129    1.0804   -0.5328 C   0  0  0  0  0  0  0  0  0  0  0  0
    3.6065    2.4305   -1.2634 Cl  0  0  0  0  0  0  0  0  0  0  0  0
    1.4140    1.0497   -0.5718 C   0  0  0  0  0  0  0  0  0  0  0  0
  1  2  1  0
  2  3  2  0
  3  4  1  0
  4  5  2  0
  5  6  1  0
  5  7  1  0
  7  8  2  0
  7  9  1  0
  9 10  2  0
 10 11  1  0
 11 12  2  0
 12 13  1  0
 12 14  1  0
 14 15  1  0
 14 16  2  0
  8  2  1  0
 16  9  1  0
M  END
>  <target>  (98) 
-7.25

$$$$

     RDKit          3D

  9 10  0  0  0  0  0  0  0  0999 V2000
   -2.7391    0.2466   -0.3950 C   0  0  0  0  0  0  0  0  0  0  0  0
   -2.4894   -1.1598   -0.3297 O   0  0  0  0  0  0  0  0  0  0  0  0
   -1.7202   -0.3291    0.5607 C   0  0  0  0  0  0  0  0  0  0  0  0
   -0.2510   -0.1636    0.2770 C   0  0  0  0  0  0  0  0  0  0  0  0
    0.5432   -1.2440   -0.1416 C   0  0  0  0  0  0  0  0  0  0  0  0
    1.9091   -1.0908   -0.3933 C   0  0  0  0  0  0  0  0  0  0  0  0
    2.5116    0.1527   -0.2267 C   0  0  0  0  0  0  0  0  0  0  0  0
    1.7489    1.2395    0.1912 C   0  0  0  0  0  0  0  0  0  0  0  0
    0.3831    1.0797    0.4410 C   0  0  0  0  0  0  0  0  0  0  0  0
  1  2  1  0
  2  3  1  0
  3  4  1  0
  4  5  2  0
  5  6  1  0
  6  7  2  0
  7  8  1  0
  8  9  2  0
  3  1  1  0
  9  4  1  0
M  END
>  <target>  (99) 
-1.6

$$$$

     RDKit          3D

  9  9  0  0  0  0  0  0  0  0999 V2000
    1.8858    1.0132    0.9853 C   0  0  0  0  0  0  0  0  0  0  0  0
    1.3442   -0.2501    0.3116 C   0  0  0  0  0  0  0  0  0  0  0  0
    2.0649   -0.5136   -1.0130 C   0  0  0  0  0  0  0  0  0  0  0  0
   -0.1609   -0.1810    0.1239 C   0  0  0  0  0  0  0  0  0  0  0  0
   -0.9872   -1.1167    0.7648 C   0  0  0  0  0  0  0  0  0  0  0  0
   -2.3738   -1.0713    0.6058 C   0  0  0  0  0  0  0  0  0  0  0  0
   -2.9532   -0.0905   -0.1955 C   0  0  0  0  0  0  0  0  0  0  0  0
   -2.1466    0.8454   -0.8383 C   0  0  0  0  0  0  0  0  0  0  0  0
   -0.7598    0.8010   -0.6801 C   0  0  0  0  0  0  0  0  0  0  0  0
  1  2  1  0
  2  3  1  0
  2  4  1  0
  4  5  2  0
  5  6  1  0
  6  7  2  0
  7  8  1  0
  8  9  2  0
  9  4  1  0
M  END
>  <target>  (100) 
-3.27

$$$$

     RDKit          3D

 24 27  0  0  0  0  0  0  0  0999 V2000
   -2.2876    0.5596   -2.0007 C   0  0  0  0  0  0  0  0  0  0  0  0
   -1.9974    0.0949   -0.5629 C   0  0  0  0  0  0  0  0  0  0  0  0
   -1.3087   -1.2912   -0.5715 C   0  0  0  0  0  0  0  0  0  0  0  0
    0.1409   -1.2493   -1.0587 C   0  0  0  0  0  0  0  0  0  0  0  0
    1.0091   -0.2790   -0.2357 C   0  0  0  0  0  0  0  0  0  0  0  0
    0.3668    1.1314   -0.2337 C   0  0  0  0  0  0  0  0  0  0  0  0
    1.1879    2.0962    0.6348 C   0  0  0  0  0  0  0  0  0  0  0  0
    2.6300    2.1829    0.1548 C   0  0  0  0  0  0  0  0  0  0  0  0
    3.2813    0.8216    0.1001 C   0  0  0  0  0  0  0  0  0  0  0  0
    4.4739    0.6305    0.6919 C   0  0  0  0  0  0  0  0  0  0  0  0
    5.2123   -0.6466    0.5649 C   0  0  0  0  0  0  0  0  0  0  0  0
    6.2817   -0.7876    1.1529 O   0  0  0  0  0  0  0  0  0  0  0  0
    4.6567   -1.6959   -0.3600 C   0  0  0  0  0  0  0  0  0  0  0  0
    3.1353   -1.6673   -0.3426 C   0  0  0  0  0  0  0  0  0  0  0  0
    2.5280   -0.2699   -0.6711 C   0  0  0  0  0  0  0  0  0  0  0  0
    2.7004    0.0063   -2.1823 C   0  0  0  0  0  0  0  0  0  0  0  0
   -1.1181    1.1240    0.1904 C   0  0  0  0  0  0  0  0  0  0  0  0
   -1.3811    0.8205    1.6745 C   0  0  0  0  0  0  0  0  0  0  0  0
   -2.7860    0.2216    1.7415 C   0  0  0  0  0  0  0  0  0  0  0  0
   -3.2922    0.1426    0.2969 C   0  0  0  0  0  0  0  0  0  0  0  0
   -4.3162   -0.9748    0.0869 C   0  0  0  0  0  0  0  0  0  0  0  0
   -4.2453   -1.7771   -0.8449 O   0  0  0  0  0  0  0  0  0  0  0  0
   -5.5056   -1.0153    1.0423 C   0  0  0  0  0  0  0  0  0  0  0  0
   -6.2654    0.1783    0.9982 O   0  0  0  0  0  0  0  0  0  0  0  0
  1  2  1  0
  2  3  1  0
  3  4  1  0
  4  5  1  0
  5  6  1  0
  6  7  1  0
  7  8  1  0
  8  9  1  0
  9 10  2  0
 10 11  1  0
 11 12  2  0
 11 13  1  0
 13 14  1  0
 14 15  1  0
 15 16  1  0
  6 17  1  0
 17 18  1  0
 18 19  1  0
 19 20  1  0
 20 21  1  0
 21 22  2  0
 21 23  1  0
 23 24  1  0
 20  2  1  0
 17  2  1  0
 15  5  1  0
 15  9  1  0
M  END
>  <target>  (101) 
-3.45

$$$$

     RDKit          3D

 14 15  0  0  0  0  0  0  0  0999 V2000
    2.1972   -0.6757   -0.0077 C   0  0  0  0  0  0  0  0  0  0  0  0
    3.7135   -1.5246    0.0947 Cl  0  0  0  0  0  0  0  0  0  0  0  0
    2.1650    0.6705   -0.3840 C   0  0  0  0  0  0  0  0  0  0  0  0
    3.6408    1.5159   -0.7551 Cl  0  0  0  0  0  0  0  0  0  0  0  0
    0.9303    1.3342   -0.4596 C   0  0  0  0  0  0  0  0  0  0  0  0
    0.8649    3.0160   -0.9274 Cl  0  0  0  0  0  0  0  0  0  0  0  0
   -0.2777    0.6817   -0.1670 C   0  0  0  0  0  0  0  0  0  0  0  0
   -1.4631    1.3395   -0.2454 N   0  0  0  0  0  0  0  0  0  0  0  0
   -2.5912    0.6627    0.0469 C   0  0  0  0  0  0  0  0  0  0  0  0
   -2.5597   -0.6566    0.4156 C   0  0  0  0  0  0  0  0  0  0  0  0
   -1.3991   -1.3361    0.5024 N   0  0  0  0  0  0  0  0  0  0  0  0
   -0.2451   -0.6811    0.2139 C   0  0  0  0  0  0  0  0  0  0  0  0
    0.9942   -1.3365    0.2868 C   0  0  0  0  0  0  0  0  0  0  0  0
    1.0092   -3.0182    0.7591 Cl  0  0  0  0  0  0  0  0  0  0  0  0
  1  2  1  0
  1  3  2  0
  3  4  1  0
  3  5  1  0
  5  6  1  0
  5  7  2  0
  7  8  1  0
  8  9  2  0
  9 10  1  0
 10 11  2  0
 11 12  1  0
 12 13  2  0
 13 14  1  0
 12  7  1  0
 13  1  1  0
M  END
>  <target>  (102) 
-5.43

$$$$

     RDKit          3D

 10 10  0  0  0  0  0  0  0  0999 V2000
    0.9935    1.3565    0.5824 C   0  0  0  0  0  0  0  0  0  0  0  0
   -0.0760    1.8978   -0.1988 O   0  0  0  0  0  0  0  0  0  0  0  0
   -1.2040    1.0397   -0.2848 C   0  0  0  0  0  0  0  0  0  0  0  0
   -1.8048    0.8862    0.9966 O   0  0  0  0  0  0  0  0  0  0  0  0
   -0.8432   -0.3482   -0.8437 C   0  0  0  0  0  0  0  0  0  0  0  0
   -1.9684   -1.2410   -0.7909 O   0  0  0  0  0  0  0  0  0  0  0  0
    0.3037   -0.9624   -0.0403 C   0  0  0  0  0  0  0  0  0  0  0  0
    0.7490   -2.1810   -0.6612 O   0  0  0  0  0  0  0  0  0  0  0  0
    1.4762    0.0135    0.0403 C   0  0  0  0  0  0  0  0  0  0  0  0
    2.4991   -0.5303    0.8756 O   0  0  0  0  0  0  0  0  0  0  0  0
  1  2  1  0
  2  3  1  0
  3  4  1  0
  3  5  1  0
  5  6  1  0
  5  7  1  0
  7  8  1  0
  7  9  1  0
  9 10  1  0
  9  1  1  0
M  END
>  <target>  (103) 
0.39

$$$$

     RDKit          3D

  3  2  0  0  0  0  0  0  0  0999 V2000
   -1.4461    0.8686   -0.0613 Cl  0  0  0  0  0  0  0  0  0  0  0  0
   -0.0018   -0.1480   -0.0001 C   0  0  0  0  0  0  0  0  0  0  0  0
    1.4665    0.8335    0.0626 Cl  0  0  0  0  0  0  0  0  0  0  0  0
  1  2  1  0
  2  3  1  0
M  END
>  <target>  (104) 
-0.63

$$$$

     RDKit          3D

 12 13  0  0  0  0  0  0  0  0999 V2000
    2.7742   -0.7903   -0.8567 C   0  0  0  0  0  0  0  0  0  0  0  0
    2.2234   -0.3126    0.4791 C   0  0  0  0  0  0  0  0  0  0  0  0
    0.9326    0.4635    0.3184 C   0  0  0  0  0  0  0  0  0  0  0  0
    1.0219    1.8657    0.2489 C   0  0  0  0  0  0  0  0  0  0  0  0
   -0.1175    2.6466    0.0928 C   0  0  0  0  0  0  0  0  0  0  0  0
   -1.3654    2.0386   -0.0013 C   0  0  0  0  0  0  0  0  0  0  0  0
   -1.4928    0.6433    0.0554 C   0  0  0  0  0  0  0  0  0  0  0  0
   -2.7629    0.0513   -0.0472 C   0  0  0  0  0  0  0  0  0  0  0  0
   -2.9169   -1.3326    0.0018 C   0  0  0  0  0  0  0  0  0  0  0  0
   -1.8007   -2.1432    0.1533 C   0  0  0  0  0  0  0  0  0  0  0  0
   -0.5310   -1.5691    0.2576 C   0  0  0  0  0  0  0  0  0  0  0  0
   -0.3395   -0.1683    0.2139 C   0  0  0  0  0  0  0  0  0  0  0  0
  1  2  1  0
  2  3  1  0
  3  4  2  0
  4  5  1  0
  5  6  2  0
  6  7  1  0
  7  8  2  0
  8  9  1  0
  9 10  2  0
 10 11  1  0
 11 12  2  0
 12  3  1  0
 12  7  1  0
M  END
>  <target>  (105) 
-4.17

$$$$

     RDKit          3D

  4  3  0  0  0  0  0  0  0  0999 V2000
   -1.0108   -0.1493    0.0361 C   0  0  0  0  0  0  0  0  0  0  0  0
    0.2644   -0.7658   -0.1453 O   0  0  0  0  0  0  0  0  0  0  0  0
    1.3063    0.0981   -0.0626 C   0  0  0  0  0  0  0  0  0  0  0  0
    1.2429    1.2990    0.1440 O   0  0  0  0  0  0  0  0  0  0  0  0
  1  2  1  0
  2  3  1  0
  3  4  2  0
M  END
>  <target>  (106) 
0.58

$$$$

     RDKit          3D

 10 10  0  0  0  0  0  0  0  0999 V2000
    1.0511    2.1239   -0.1737 O   0  0  0  0  0  0  0  0  0  0  0  0
    0.2669    1.0026   -0.1487 C   0  0  0  0  0  0  0  0  0  0  0  0
   -1.0490    1.1900   -0.5734 C   0  0  0  0  0  0  0  0  0  0  0  0
   -1.9438    0.1183   -0.5917 C   0  0  0  0  0  0  0  0  0  0  0  0
   -1.5284   -1.1493   -0.1849 C   0  0  0  0  0  0  0  0  0  0  0  0
   -0.2143   -1.3497    0.2423 C   0  0  0  0  0  0  0  0  0  0  0  0
    0.6858   -0.2711    0.2605 C   0  0  0  0  0  0  0  0  0  0  0  0
    2.0586   -0.5060    0.7126 N   0  0  0  0  0  0  0  0  0  0  0  0
    2.3713   -1.6526    1.0622 O   0  0  0  0  0  0  0  0  0  0  0  0
    2.8333    0.4650    0.7187 O   0  0  0  0  0  0  0  0  0  0  0  0
  1  2  1  0
  2  3  2  0
  3  4  1  0
  4  5  2  0
  5  6  1  0
  6  7  2  0
  7  8  1  0
  8  9  1  0
  8 10  2  0
  7  2  1  0
M  CHG  2   8   1   9  -1
M  END
>  <target>  (107) 
-1.74

$$$$

     RDKit          3D

  9  9  0  0  0  0  0  0  0  0999 V2000
    2.2148   -0.1294   -0.1876 C   0  0  0  0  0  0  0  0  0  0  0  0
    0.7350    0.0192   -0.0626 C   0  0  0  0  0  0  0  0  0  0  0  0
    0.0901    1.1915   -0.0142 C   0  0  0  0  0  0  0  0  0  0  0  0
   -1.2700    1.2514    0.1012 N   0  0  0  0  0  0  0  0  0  0  0  0
   -2.0746    0.1479    0.1756 C   0  0  0  0  0  0  0  0  0  0  0  0
   -3.2930    0.2385    0.2787 O   0  0  0  0  0  0  0  0  0  0  0  0
   -1.4303   -1.0543    0.1274 N   0  0  0  0  0  0  0  0  0  0  0  0
   -0.0785   -1.2245    0.0134 C   0  0  0  0  0  0  0  0  0  0  0  0
    0.4368   -2.3369   -0.0244 O   0  0  0  0  0  0  0  0  0  0  0  0
  1  2  1  0
  2  3  2  0
  3  4  1  0
  4  5  1  0
  5  6  2  0
  5  7  1  0
  7  8  1  0
  8  9  2  0
  8  2  1  0
M  END
>  <target>  (108) 
-1.506

$$$$

     RDKit          3D

  4  3  0  0  0  0  0  0  0  0999 V2000
   -0.9442   -1.0703   -0.2629 C   0  0  0  0  0  0  0  0  0  0  0  0
    0.0617    0.0706   -0.3996 C   0  0  0  0  0  0  0  0  0  0  0  0
    1.3979   -0.3131    0.2322 C   0  0  0  0  0  0  0  0  0  0  0  0
   -0.4852    1.3474    0.2348 C   0  0  0  0  0  0  0  0  0  0  0  0
  1  2  1  0
  2  3  1  0
  2  4  1  0
M  END
>  <target>  (109) 
-2.55

$$$$

     RDKit          3D

 19 21  0  0  0  0  0  0  0  0999 V2000
   -3.9914    2.3956    0.5976 O   0  0  0  0  0  0  0  0  0  0  0  0
   -3.4942    1.9297   -0.6587 C   0  0  0  0  0  0  0  0  0  0  0  0
   -2.5285    0.7736   -0.4224 C   0  0  0  0  0  0  0  0  0  0  0  0
   -1.3661    1.2631    0.2989 O   0  0  0  0  0  0  0  0  0  0  0  0
   -0.1975    0.6229   -0.2635 C   0  0  0  0  0  0  0  0  0  0  0  0
   -0.7003   -0.4816   -1.2044 C   0  0  0  0  0  0  0  0  0  0  0  0
    0.1576   -0.7495   -2.3149 O   0  0  0  0  0  0  0  0  0  0  0  0
   -2.0080    0.1122   -1.6910 C   0  0  0  0  0  0  0  0  0  0  0  0
   -1.7358    1.0692   -2.7196 O   0  0  0  0  0  0  0  0  0  0  0  0
    0.6461    0.1198    0.8063 N   0  0  0  0  0  0  0  0  0  0  0  0
    0.4748    0.2864    2.1536 C   0  0  0  0  0  0  0  0  0  0  0  0
    1.4372   -0.2869    2.8466 N   0  0  0  0  0  0  0  0  0  0  0  0
    2.2794   -0.8362    1.9064 C   0  0  0  0  0  0  0  0  0  0  0  0
    3.4671   -1.5604    1.9683 C   0  0  0  0  0  0  0  0  0  0  0  0
    4.0946   -1.9002    3.1331 O   0  0  0  0  0  0  0  0  0  0  0  0
    4.0854   -1.9814    0.8493 N   0  0  0  0  0  0  0  0  0  0  0  0
    3.4992   -1.6720   -0.3261 C   0  0  0  0  0  0  0  0  0  0  0  0
    2.3501   -0.9895   -0.5395 N   0  0  0  0  0  0  0  0  0  0  0  0
    1.8017   -0.5952    0.6266 C   0  0  0  0  0  0  0  0  0  0  0  0
  1  2  1  0
  2  3  1  0
  3  4  1  0
  4  5  1  0
  5  6  1  0
  6  7  1  0
  6  8  1  0
  8  9  1  0
  5 10  1  0
 10 11  1  0
 11 12  2  0
 12 13  1  0
 13 14  2  0
 14 15  1  0
 14 16  1  0
 16 17  2  0
 17 18  1  0
 18 19  2  0
  8  3  1  0
 19 10  1  0
 19 13  1  0
M  END
>  <target>  (110) 
-1.23

$$$$

     RDKit          3D

 11 11  0  0  0  0  0  0  0  0999 V2000
   -2.7670    0.0529    0.2582 O   0  0  0  0  0  0  0  0  0  0  0  0
   -1.4052    0.0065    0.1248 C   0  0  0  0  0  0  0  0  0  0  0  0
   -0.7971   -1.1797   -0.3007 C   0  0  0  0  0  0  0  0  0  0  0  0
   -1.9101   -2.8968   -0.7426 I   0  0  0  0  0  0  0  0  0  0  0  0
    0.5931   -1.2465   -0.4431 C   0  0  0  0  0  0  0  0  0  0  0  0
    1.3797   -0.1249   -0.1597 C   0  0  0  0  0  0  0  0  0  0  0  0
    2.8044   -0.1926   -0.3053 C   0  0  0  0  0  0  0  0  0  0  0  0
    3.9575   -0.2434   -0.4220 N   0  0  0  0  0  0  0  0  0  0  0  0
    0.7761    1.0633    0.2660 C   0  0  0  0  0  0  0  0  0  0  0  0
   -0.6132    1.1261    0.4071 C   0  0  0  0  0  0  0  0  0  0  0  0
   -1.4645    2.9261    1.0465 I   0  0  0  0  0  0  0  0  0  0  0  0
  1  2  1  0
  2  3  2  0
  3  4  1  0
  3  5  1  0
  5  6  2  0
  6  7  1  0
  7  8  3  0
  6  9  1  0
  9 10  2  0
 10 11  1  0
 10  2  1  0
M  END
>  <target>  (111) 
-3.61

$$$$

     RDKit          3D

 21 22  0  0  0  0  0  0  0  0999 V2000
   -2.9167   -2.1368   -1.6796 O   0  0  0  0  0  0  0  0  0  0  0  0
   -3.2485   -1.0761   -0.8798 C   0  0  0  0  0  0  0  0  0  0  0  0
   -4.5999   -0.7390   -0.8410 C   0  0  0  0  0  0  0  0  0  0  0  0
   -5.0300    0.3125   -0.0330 C   0  0  0  0  0  0  0  0  0  0  0  0
   -4.1047    1.0138    0.7373 C   0  0  0  0  0  0  0  0  0  0  0  0
   -4.6400    2.2955    1.7534 Cl  0  0  0  0  0  0  0  0  0  0  0  0
   -2.7476    0.6878    0.6984 C   0  0  0  0  0  0  0  0  0  0  0  0
   -2.3052   -0.3522   -0.1320 C   0  0  0  0  0  0  0  0  0  0  0  0
   -0.8629   -0.7207   -0.2186 C   0  0  0  0  0  0  0  0  0  0  0  0
   -0.5916   -1.8732   -0.5438 O   0  0  0  0  0  0  0  0  0  0  0  0
    0.0413    0.2941    0.0224 N   0  0  0  0  0  0  0  0  0  0  0  0
    1.4551    0.2094    0.0366 C   0  0  0  0  0  0  0  0  0  0  0  0
    2.1525   -0.9965   -0.0875 C   0  0  0  0  0  0  0  0  0  0  0  0
    3.5525   -1.0178   -0.0640 C   0  0  0  0  0  0  0  0  0  0  0  0
    4.2644    0.1772    0.0888 C   0  0  0  0  0  0  0  0  0  0  0  0
    3.5892    1.3939    0.2219 C   0  0  0  0  0  0  0  0  0  0  0  0
    2.1929    1.4008    0.1969 C   0  0  0  0  0  0  0  0  0  0  0  0
    1.3855    2.9242    0.3689 Cl  0  0  0  0  0  0  0  0  0  0  0  0
    5.7315    0.1535    0.1132 N   0  0  0  0  0  0  0  0  0  0  0  0
    6.2923   -0.9447   -0.0011 O   0  0  0  0  0  0  0  0  0  0  0  0
    6.3203    1.2351    0.2482 O   0  0  0  0  0  0  0  0  0  0  0  0
  1  2  1  0
  2  3  2  0
  3  4  1  0
  4  5  2  0
  5  6  1  0
  5  7  1  0
  7  8  2  0
  8  9  1  0
  9 10  2  0
  9 11  1  0
 11 12  1  0
 12 13  2  0
 13 14  1  0
 14 15  2  0
 15 16  1  0
 16 17  2  0
 17 18  1  0
 15 19  1  0
 19 20  1  0
 19 21  2  0
  8  2  1  0
 17 12  1  0
M  CHG  2  19   1  20  -1
M  END
>  <target>  (112) 
-4.7

$$$$

     RDKit          3D

  5  4  0  0  0  0  0  0  0  0999 V2000
    2.5134   -0.3005   -0.0234 C   0  0  0  0  0  0  0  0  0  0  0  0
    1.1004   -0.8295   -0.2108 C   0  0  0  0  0  0  0  0  0  0  0  0
    0.0695    0.2980   -0.1650 C   0  0  0  0  0  0  0  0  0  0  0  0
   -1.3494   -0.2380   -0.3538 C   0  0  0  0  0  0  0  0  0  0  0  0
   -2.3781    0.8806   -0.3089 C   0  0  0  0  0  0  0  0  0  0  0  0
  1  2  1  0
  2  3  1  0
  3  4  1  0
  4  5  1  0
M  END
>  <target>  (113) 
-3.18

$$$$

     RDKit          3D

  7  7  0  0  0  0  0  0  0  0999 V2000
    0.4612   -1.0895    0.3358 C   0  0  0  0  0  0  0  0  0  0  0  0
   -0.9235   -1.1563    0.1717 C   0  0  0  0  0  0  0  0  0  0  0  0
   -1.6390   -0.0198   -0.2092 C   0  0  0  0  0  0  0  0  0  0  0  0
   -0.9711    1.1858   -0.4268 C   0  0  0  0  0  0  0  0  0  0  0  0
    0.4123    1.2547   -0.2634 C   0  0  0  0  0  0  0  0  0  0  0  0
    1.1177    0.1183    0.1162 C   0  0  0  0  0  0  0  0  0  0  0  0
    2.4688    0.2293    0.2647 O   0  0  0  0  0  0  0  0  0  0  0  0
  1  2  2  0
  2  3  1  0
  3  4  2  0
  4  5  1  0
  5  6  2  0
  6  7  1  0
  6  1  1  0
M  END
>  <target>  (114) 
0.0

$$$$

     RDKit          3D

 15 17  0  0  0  0  0  0  0  0999 V2000
    4.6189    0.2532    0.3790 N   0  0  0  0  0  0  0  0  0  0  0  0
    3.3039    0.0815   -0.0701 C   0  0  0  0  0  0  0  0  0  0  0  0
    3.0434   -0.6831   -1.2062 C   0  0  0  0  0  0  0  0  0  0  0  0
    1.7291   -0.9544   -1.5969 C   0  0  0  0  0  0  0  0  0  0  0  0
    0.6462   -0.5006   -0.8301 C   0  0  0  0  0  0  0  0  0  0  0  0
   -0.6814   -0.7619   -1.2075 C   0  0  0  0  0  0  0  0  0  0  0  0
   -1.7628   -0.3195   -0.4281 C   0  0  0  0  0  0  0  0  0  0  0  0
   -3.0908   -0.5782   -0.8042 C   0  0  0  0  0  0  0  0  0  0  0  0
   -4.1545   -0.1332   -0.0180 C   0  0  0  0  0  0  0  0  0  0  0  0
   -3.9049    0.5749    1.1534 C   0  0  0  0  0  0  0  0  0  0  0  0
   -2.5908    0.8395    1.5408 C   0  0  0  0  0  0  0  0  0  0  0  0
   -1.5096    0.3990    0.7601 C   0  0  0  0  0  0  0  0  0  0  0  0
   -0.1819    0.6583    1.1368 C   0  0  0  0  0  0  0  0  0  0  0  0
    0.8995    0.2212    0.3540 C   0  0  0  0  0  0  0  0  0  0  0  0
    2.2296    0.4827    0.7289 C   0  0  0  0  0  0  0  0  0  0  0  0
  1  2  1  0
  2  3  2  0
  3  4  1  0
  4  5  2  0
  5  6  1  0
  6  7  2  0
  7  8  1  0
  8  9  2  0
  9 10  1  0
 10 11  2  0
 11 12  1  0
 12 13  2  0
 13 14  1  0
 14 15  2  0
 12  7  1  0
 14  5  1  0
 15  2  1  0
M  END
>  <target>  (115) 
-5.17

$$$$

     RDKit          3D

 13 14  0  0  0  0  0  0  0  0999 V2000
    3.1051    0.3754    0.0623 C   0  0  0  0  0  0  0  0  0  0  0  0
    1.8101   -0.2536    0.0095 N   0  0  0  0  0  0  0  0  0  0  0  0
    1.5635   -1.5993   -0.0701 C   0  0  0  0  0  0  0  0  0  0  0  0
    0.2704   -1.8579   -0.1018 N   0  0  0  0  0  0  0  0  0  0  0  0
   -0.3215   -0.6332   -0.0402 C   0  0  0  0  0  0  0  0  0  0  0  0
   -1.6760   -0.3777   -0.0435 N   0  0  0  0  0  0  0  0  0  0  0  0
   -2.6305   -1.4662   -0.1179 C   0  0  0  0  0  0  0  0  0  0  0  0
   -2.1062    0.9436    0.0257 C   0  0  0  0  0  0  0  0  0  0  0  0
   -3.2892    1.2846    0.0295 O   0  0  0  0  0  0  0  0  0  0  0  0
   -1.1303    1.9227    0.0942 N   0  0  0  0  0  0  0  0  0  0  0  0
    0.2349    1.7432    0.1020 C   0  0  0  0  0  0  0  0  0  0  0  0
    1.0234    2.6792    0.1655 O   0  0  0  0  0  0  0  0  0  0  0  0
    0.5989    0.3731    0.0291 C   0  0  0  0  0  0  0  0  0  0  0  0
  1  2  1  0
  2  3  1  0
  3  4  2  0
  4  5  1  0
  5  6  1  0
  6  7  1  0
  6  8  1  0
  8  9  2  0
  8 10  1  0
 10 11  1  0
 11 12  2  0
 11 13  1  0
 13  2  1  0
 13  5  2  0
M  END
>  <target>  (116) 
-2.523

$$$$

     RDKit          3D

 10 11  0  0  0  0  0  0  0  0999 V2000
   -2.1029   -0.9921    0.0200 C   0  0  0  0  0  0  0  0  0  0  0  0
   -2.3312    0.3691   -0.1680 C   0  0  0  0  0  0  0  0  0  0  0  0
   -1.2547    1.2548   -0.2272 C   0  0  0  0  0  0  0  0  0  0  0  0
    0.0636    0.7820   -0.0980 C   0  0  0  0  0  0  0  0  0  0  0  0
    1.1802    1.6205   -0.1490 C   0  0  0  0  0  0  0  0  0  0  0  0
    2.4621    1.2023   -0.0287 N   0  0  0  0  0  0  0  0  0  0  0  0
    2.6474   -0.1213    0.1522 C   0  0  0  0  0  0  0  0  0  0  0  0
    1.6165   -1.0456    0.2187 C   0  0  0  0  0  0  0  0  0  0  0  0
    0.2972   -0.5943    0.0923 C   0  0  0  0  0  0  0  0  0  0  0  0
   -0.7978   -1.4725    0.1495 C   0  0  0  0  0  0  0  0  0  0  0  0
  1  2  2  0
  2  3  1  0
  3  4  2  0
  4  5  1  0
  5  6  2  0
  6  7  1  0
  7  8  2  0
  8  9  1  0
  9 10  2  0
 10  1  1  0
  9  4  1  0
M  END
>  <target>  (117) 
-1.45

$$$$

     RDKit          3D

 21 21  0  0  0  0  0  0  0  0999 V2000
    3.0252   -2.0681    0.2320 C   0  0  0  0  0  0  0  0  0  0  0  0
    2.2291   -1.0879    0.8689 O   0  0  0  0  0  0  0  0  0  0  0  0
    2.6976    0.4673    0.8397 P   0  0  0  0  0  0  0  0  0  0  0  0
    1.7064    1.4921    2.1729 S   0  0  0  0  0  0  0  0  0  0  0  0
    4.2640    0.2814    1.2408 O   0  0  0  0  0  0  0  0  0  0  0  0
    5.0727    1.4304    1.4023 C   0  0  0  0  0  0  0  0  0  0  0  0
    2.6419    1.1318   -1.1627 S   0  0  0  0  0  0  0  0  0  0  0  0
    0.8654    1.1124   -1.5504 C   0  0  0  0  0  0  0  0  0  0  0  0
    0.3004   -0.3001   -1.3870 C   0  0  0  0  0  0  0  0  0  0  0  0
    0.8268   -1.2522   -1.9708 O   0  0  0  0  0  0  0  0  0  0  0  0
   -0.7728   -0.4588   -0.4948 N   0  0  0  0  0  0  0  0  0  0  0  0
   -1.2204   -1.8492   -0.2310 C   0  0  0  0  0  0  0  0  0  0  0  0
   -2.2253   -2.3368   -1.2816 C   0  0  0  0  0  0  0  0  0  0  0  0
   -1.7542   -2.0997    1.1808 C   0  0  0  0  0  0  0  0  0  0  0  0
   -1.7259    0.5863   -0.3218 C   0  0  0  0  0  0  0  0  0  0  0  0
   -2.0452    1.0368    0.9624 C   0  0  0  0  0  0  0  0  0  0  0  0
   -2.9415    2.0938    1.1366 C   0  0  0  0  0  0  0  0  0  0  0  0
   -3.5216    2.6998    0.0253 C   0  0  0  0  0  0  0  0  0  0  0  0
   -4.6131    4.0097    0.2411 Cl  0  0  0  0  0  0  0  0  0  0  0  0
   -3.2152    2.2573   -1.2601 C   0  0  0  0  0  0  0  0  0  0  0  0
   -2.3145    1.2038   -1.4348 C   0  0  0  0  0  0  0  0  0  0  0  0
  1  2  1  0
  2  3  1  0
  3  4  2  0
  3  5  1  0
  5  6  1  0
  3  7  1  0
  7  8  1  0
  8  9  1  0
  9 10  2  0
  9 11  1  0
 11 12  1  0
 12 13  1  0
 12 14  1  0
 11 15  1  0
 15 16  2  0
 16 17  1  0
 17 18  2  0
 18 19  1  0
 18 20  1  0
 20 21  2  0
 21 15  1  0
M  END
>  <target>  (118) 
-4.4319999999999995

$$$$

     RDKit          3D

 12 12  0  0  0  0  0  0  0  0999 V2000
    5.0667   -0.2591    0.5901 C   0  0  0  0  0  0  0  0  0  0  0  0
    3.9443   -0.3551   -0.4309 C   0  0  0  0  0  0  0  0  0  0  0  0
    2.5775   -0.1355    0.2170 C   0  0  0  0  0  0  0  0  0  0  0  0
    1.4513   -0.2329   -0.8134 C   0  0  0  0  0  0  0  0  0  0  0  0
    0.0833   -0.0131   -0.1652 C   0  0  0  0  0  0  0  0  0  0  0  0
   -1.0418   -0.1109   -1.1977 C   0  0  0  0  0  0  0  0  0  0  0  0
   -2.3955    0.1043   -0.5687 C   0  0  0  0  0  0  0  0  0  0  0  0
   -3.1177   -0.9780   -0.0486 C   0  0  0  0  0  0  0  0  0  0  0  0
   -4.3631   -0.7758    0.5483 C   0  0  0  0  0  0  0  0  0  0  0  0
   -4.8955    0.5092    0.6349 C   0  0  0  0  0  0  0  0  0  0  0  0
   -4.1823    1.5933    0.1268 C   0  0  0  0  0  0  0  0  0  0  0  0
   -2.9367    1.3930   -0.4704 C   0  0  0  0  0  0  0  0  0  0  0  0
  1  2  1  0
  2  3  1  0
  3  4  1  0
  4  5  1  0
  5  6  1  0
  6  7  1  0
  7  8  2  0
  8  9  1  0
  9 10  2  0
 10 11  1  0
 11 12  2  0
 12  7  1  0
M  END
>  <target>  (119) 
-5.21

$$$$

     RDKit          3D

 13 14  0  0  0  0  0  0  0  0999 V2000
   -0.5120   -1.8524    2.1307 Cl  0  0  0  0  0  0  0  0  0  0  0  0
   -1.3667   -1.0487    0.8576 C   0  0  0  0  0  0  0  0  0  0  0  0
   -2.7382   -1.3052    0.7425 C   0  0  0  0  0  0  0  0  0  0  0  0
   -3.4889   -0.6812   -0.2528 C   0  0  0  0  0  0  0  0  0  0  0  0
   -2.8715    0.2012   -1.1343 C   0  0  0  0  0  0  0  0  0  0  0  0
   -1.5030    0.4586   -1.0211 C   0  0  0  0  0  0  0  0  0  0  0  0
   -0.7238   -0.1611   -0.0257 C   0  0  0  0  0  0  0  0  0  0  0  0
    0.7123    0.1438    0.0457 C   0  0  0  0  0  0  0  0  0  0  0  0
    1.1600    1.3612    0.5823 C   0  0  0  0  0  0  0  0  0  0  0  0
    2.5237    1.6579    0.6407 C   0  0  0  0  0  0  0  0  0  0  0  0
    3.4576    0.7422    0.1609 C   0  0  0  0  0  0  0  0  0  0  0  0
    3.0300   -0.4697   -0.3773 C   0  0  0  0  0  0  0  0  0  0  0  0
    1.6664   -0.7662   -0.4357 C   0  0  0  0  0  0  0  0  0  0  0  0
  1  2  1  0
  2  3  2  0
  3  4  1  0
  4  5  2  0
  5  6  1  0
  6  7  2  0
  7  8  1  0
  8  9  2  0
  9 10  1  0
 10 11  2  0
 11 12  1  0
 12 13  2  0
  7  2  1  0
 13  8  1  0
M  END
>  <target>  (120) 
-4.54

$$$$

     RDKit          3D

  6  5  0  0  0  0  0  0  0  0999 V2000
   -2.5383   -0.3846   -0.4744 C   0  0  0  0  0  0  0  0  0  0  0  0
   -1.0358   -0.2908   -0.6927 C   0  0  0  0  0  0  0  0  0  0  0  0
   -0.3239    0.2458    0.5514 C   0  0  0  0  0  0  0  0  0  0  0  0
    1.1664    0.3987    0.3479 C   0  0  0  0  0  0  0  0  0  0  0  0
    1.7438    1.6081    0.2583 C   0  0  0  0  0  0  0  0  0  0  0  0
    1.9771   -0.8657    0.2880 C   0  0  0  0  0  0  0  0  0  0  0  0
  1  2  1  0
  2  3  1  0
  3  4  1  0
  4  5  2  0
  4  6  1  0
M  END
>  <target>  (121) 
-3.03

$$$$

     RDKit          3D

  8  7  0  0  0  0  0  0  0  0999 V2000
   -2.4684   -0.7458   -0.6377 C   0  0  0  0  0  0  0  0  0  0  0  0
   -1.2763   -0.4247    0.2764 C   0  0  0  0  0  0  0  0  0  0  0  0
   -1.7630    0.5171    1.3853 C   0  0  0  0  0  0  0  0  0  0  0  0
   -0.0650    0.1617   -0.5221 C   0  0  0  0  0  0  0  0  0  0  0  0
    0.3945   -0.8189   -1.6156 C   0  0  0  0  0  0  0  0  0  0  0  0
    1.1199    0.6183    0.3878 C   0  0  0  0  0  0  0  0  0  0  0  0
    1.7578   -0.5213    1.1869 C   0  0  0  0  0  0  0  0  0  0  0  0
    2.2062    1.3630   -0.3999 C   0  0  0  0  0  0  0  0  0  0  0  0
  1  2  1  0
  2  3  1  0
  2  4  1  0
  4  5  1  0
  4  6  1  0
  6  7  1  0
  6  8  1  0
M  END
>  <target>  (122) 
-4.8

$$$$

     RDKit          3D

 11 11  0  0  0  0  0  0  0  0999 V2000
    3.1249   -0.3725   -0.0900 Cl  0  0  0  0  0  0  0  0  0  0  0  0
    1.4104   -0.1456   -0.0403 C   0  0  0  0  0  0  0  0  0  0  0  0
    0.6207   -1.2958   -0.0345 C   0  0  0  0  0  0  0  0  0  0  0  0
   -0.7700   -1.1913    0.0047 C   0  0  0  0  0  0  0  0  0  0  0  0
   -1.6672   -2.6706    0.0090 Cl  0  0  0  0  0  0  0  0  0  0  0  0
   -1.3865    0.0685    0.0386 C   0  0  0  0  0  0  0  0  0  0  0  0
   -3.1209    0.1808    0.0873 Cl  0  0  0  0  0  0  0  0  0  0  0  0
   -0.5895    1.2308    0.0328 C   0  0  0  0  0  0  0  0  0  0  0  0
   -1.3420    2.8017    0.0746 Cl  0  0  0  0  0  0  0  0  0  0  0  0
    0.8152    1.1242   -0.0069 C   0  0  0  0  0  0  0  0  0  0  0  0
    1.8141    2.5473   -0.0147 Cl  0  0  0  0  0  0  0  0  0  0  0  0
  1  2  1  0
  2  3  2  0
  3  4  1  0
  4  5  1  0
  4  6  2  0
  6  7  1  0
  6  8  1  0
  8  9  1  0
  8 10  2  0
 10 11  1  0
 10  2  1  0
M  END
>  <target>  (123) 
-5.65

$$$$

     RDKit          3D

 10 10  0  0  0  0  0  0  0  0999 V2000
   -1.9123   -1.9258    0.6157 O   0  0  0  0  0  0  0  0  0  0  0  0
   -1.1238   -0.8817    0.2337 C   0  0  0  0  0  0  0  0  0  0  0  0
   -1.6555    0.2200   -0.4336 C   0  0  0  0  0  0  0  0  0  0  0  0
   -0.8166    1.2712   -0.8094 C   0  0  0  0  0  0  0  0  0  0  0  0
    0.5480    1.2171   -0.5172 C   0  0  0  0  0  0  0  0  0  0  0  0
    1.0669    0.1006    0.1553 C   0  0  0  0  0  0  0  0  0  0  0  0
    0.2317   -0.9557    0.5344 C   0  0  0  0  0  0  0  0  0  0  0  0
    2.4999    0.0403    0.4640 N   0  0  0  0  0  0  0  0  0  0  0  0
    2.9230   -0.9610    1.0589 O   0  0  0  0  0  0  0  0  0  0  0  0
    3.2054    0.9966    0.1109 O   0  0  0  0  0  0  0  0  0  0  0  0
  1  2  1  0
  2  3  2  0
  3  4  1  0
  4  5  2  0
  5  6  1  0
  6  7  2  0
  6  8  1  0
  8  9  1  0
  8 10  2  0
  7  2  1  0
M  CHG  2   8   1   9  -1
M  END
>  <target>  (124) 
-1.01

$$$$

     RDKit          3D

 10  9  0  0  0  0  0  0  0  0999 V2000
    5.1006   -0.4058    0.1352 C   0  0  0  0  0  0  0  0  0  0  0  0
    3.7319   -0.6760   -0.4689 C   0  0  0  0  0  0  0  0  0  0  0  0
    2.6340    0.0935    0.2650 C   0  0  0  0  0  0  0  0  0  0  0  0
    1.2588   -0.1811   -0.3457 C   0  0  0  0  0  0  0  0  0  0  0  0
    0.1599    0.5889    0.3887 C   0  0  0  0  0  0  0  0  0  0  0  0
   -1.2158    0.3142   -0.2225 C   0  0  0  0  0  0  0  0  0  0  0  0
   -2.3143    1.0860    0.5151 C   0  0  0  0  0  0  0  0  0  0  0  0
   -3.7008    0.9002   -0.1091 C   0  0  0  0  0  0  0  0  0  0  0  0
   -4.2221   -0.5024    0.0236 C   0  0  0  0  0  0  0  0  0  0  0  0
   -4.5430   -1.2853   -1.0141 C   0  0  0  0  0  0  0  0  0  0  0  0
  1  2  1  0
  2  3  1  0
  3  4  1  0
  4  5  1  0
  5  6  1  0
  6  7  1  0
  7  8  1  0
  8  9  1  0
  9 10  2  0
M  END
>  <target>  (125) 
-5.51

$$$$

     RDKit          3D

 15 14  0  0  0  0  0  0  0  0999 V2000
   -4.3406    0.0430    0.3000 C   0  0  0  0  0  0  0  0  0  0  0  0
   -3.1074   -0.5467   -0.3109 C   0  0  0  0  0  0  0  0  0  0  0  0
   -2.7970   -1.7285   -0.2517 O   0  0  0  0  0  0  0  0  0  0  0  0
   -2.3943    0.4179   -0.9574 O   0  0  0  0  0  0  0  0  0  0  0  0
   -1.1533   -0.0304   -1.5306 C   0  0  0  0  0  0  0  0  0  0  0  0
   -0.0552   -0.1602   -0.4655 C   0  0  0  0  0  0  0  0  0  0  0  0
    1.1938   -0.8023   -1.0749 C   0  0  0  0  0  0  0  0  0  0  0  0
    2.1518   -1.0375   -0.0271 O   0  0  0  0  0  0  0  0  0  0  0  0
    3.3243   -1.5768   -0.4571 C   0  0  0  0  0  0  0  0  0  0  0  0
    3.5920   -1.8518   -1.6179 O   0  0  0  0  0  0  0  0  0  0  0  0
    4.2495   -1.7873    0.7016 C   0  0  0  0  0  0  0  0  0  0  0  0
    0.3195    1.1670   -0.0129 O   0  0  0  0  0  0  0  0  0  0  0  0
   -0.3353    1.6454    1.0791 C   0  0  0  0  0  0  0  0  0  0  0  0
   -1.2081    1.0626    1.7058 O   0  0  0  0  0  0  0  0  0  0  0  0
    0.1695    3.0158    1.4130 C   0  0  0  0  0  0  0  0  0  0  0  0
  1  2  1  0
  2  3  2  0
  2  4  1  0
  4  5  1  0
  5  6  1  0
  6  7  1  0
  7  8  1  0
  8  9  1  0
  9 10  2  0
  9 11  1  0
  6 12  1  0
 12 13  1  0
 13 14  2  0
 13 15  1  0
M  END
>  <target>  (126) 
-0.6

$$$$

     RDKit          3D

 15 15  0  0  0  0  0  0  0  0999 V2000
   -5.0003    0.6082   -1.0406 C   0  0  0  0  0  0  0  0  0  0  0  0
   -4.1067    0.0858    0.0730 C   0  0  0  0  0  0  0  0  0  0  0  0
   -2.6268    0.2521   -0.2719 C   0  0  0  0  0  0  0  0  0  0  0  0
   -1.7322   -0.2749    0.8538 C   0  0  0  0  0  0  0  0  0  0  0  0
   -0.2754   -0.1304    0.5265 C   0  0  0  0  0  0  0  0  0  0  0  0
    0.4909   -1.1077   -0.0773 C   0  0  0  0  0  0  0  0  0  0  0  0
   -0.0695   -2.4493   -0.4476 C   0  0  0  0  0  0  0  0  0  0  0  0
    1.7998   -0.9224   -0.3695 N   0  0  0  0  0  0  0  0  0  0  0  0
    2.3812    0.2537   -0.0740 C   0  0  0  0  0  0  0  0  0  0  0  0
    1.7060    1.2572    0.5019 N   0  0  0  0  0  0  0  0  0  0  0  0
    0.4175    1.0303    0.7736 C   0  0  0  0  0  0  0  0  0  0  0  0
   -0.1963    2.1020    1.3422 O   0  0  0  0  0  0  0  0  0  0  0  0
    3.7251    0.4441   -0.4028 N   0  0  0  0  0  0  0  0  0  0  0  0
    4.4687   -0.7856   -0.6253 C   0  0  0  0  0  0  0  0  0  0  0  0
    4.3923    1.4841    0.3621 C   0  0  0  0  0  0  0  0  0  0  0  0
  1  2  1  0
  2  3  1  0
  3  4  1  0
  4  5  1  0
  5  6  2  0
  6  7  1  0
  6  8  1  0
  8  9  2  0
  9 10  1  0
 10 11  2  0
 11 12  1  0
  9 13  1  0
 13 14  1  0
 13 15  1  0
 11  5  1  0
M  END
>  <target>  (127) 
-2.24

$$$$

     RDKit          3D

 29 31  0  0  0  0  0  0  0  0999 V2000
    3.5801    1.0084   -1.0292 C   0  0  0  0  0  0  0  0  0  0  0  0
    2.1313    0.5856   -1.0869 C   0  0  0  0  0  0  0  0  0  0  0  0
    1.3541    0.9594    0.1536 C   0  0  0  0  0  0  0  0  0  0  0  0
    1.3628    0.6042   -2.3974 C   0  0  0  0  0  0  0  0  0  0  0  0
    1.9919    1.1108   -3.6269 C   0  0  0  0  0  0  0  0  0  0  0  0
    2.1028    2.3919   -4.0113 C   0  0  0  0  0  0  0  0  0  0  0  0
    2.8742    2.7906   -5.5045 Cl  0  0  0  0  0  0  0  0  0  0  0  0
    1.4965    3.6927   -3.0524 Cl  0  0  0  0  0  0  0  0  0  0  0  0
    1.8234   -0.7177   -1.8143 C   0  0  0  0  0  0  0  0  0  0  0  0
    0.8293   -1.6733   -1.2765 C   0  0  0  0  0  0  0  0  0  0  0  0
   -0.2757   -1.8192   -1.7743 O   0  0  0  0  0  0  0  0  0  0  0  0
    1.3157   -2.3290   -0.1959 O   0  0  0  0  0  0  0  0  0  0  0  0
    0.3757   -3.1972    0.4627 C   0  0  0  0  0  0  0  0  0  0  0  0
    1.0670   -4.4360    0.8844 C   0  0  0  0  0  0  0  0  0  0  0  0
    1.6157   -5.4065    1.2132 N   0  0  0  0  0  0  0  0  0  0  0  0
   -0.2254   -2.4090    1.6206 C   0  0  0  0  0  0  0  0  0  0  0  0
    0.4157   -2.2921    2.8684 C   0  0  0  0  0  0  0  0  0  0  0  0
   -0.1489   -1.5232    3.8908 C   0  0  0  0  0  0  0  0  0  0  0  0
   -1.3393   -0.8405    3.6679 C   0  0  0  0  0  0  0  0  0  0  0  0
   -1.8571   -0.0939    4.6534 F   0  0  0  0  0  0  0  0  0  0  0  0
   -1.9668   -0.9056    2.4287 C   0  0  0  0  0  0  0  0  0  0  0  0
   -3.1362   -0.2039    2.2387 O   0  0  0  0  0  0  0  0  0  0  0  0
   -3.0973    0.7104    1.2097 C   0  0  0  0  0  0  0  0  0  0  0  0
   -2.2370    1.8100    1.2519 C   0  0  0  0  0  0  0  0  0  0  0  0
   -2.2160    2.7094    0.1867 C   0  0  0  0  0  0  0  0  0  0  0  0
   -3.0603    2.5133   -0.9068 C   0  0  0  0  0  0  0  0  0  0  0  0
   -3.9450    1.4336   -0.9276 C   0  0  0  0  0  0  0  0  0  0  0  0
   -3.9711    0.5338    0.1375 C   0  0  0  0  0  0  0  0  0  0  0  0
   -1.4265   -1.7044    1.4151 C   0  0  0  0  0  0  0  0  0  0  0  0
  1  2  1  0
  2  3  1  0
  2  4  1  0
  4  5  1  0
  5  6  2  3
  6  7  1  0
  6  8  1  0
  4  9  1  0
  9 10  1  0
 10 11  2  0
 10 12  1  0
 12 13  1  0
 13 14  1  0
 14 15  3  0
 13 16  1  0
 16 17  2  0
 17 18  1  0
 18 19  2  0
 19 20  1  0
 19 21  1  0
 21 22  1  0
 22 23  1  0
 23 24  2  0
 24 25  1  0
 25 26  2  0
 26 27  1  0
 27 28  2  0
 21 29  2  0
  9  2  1  0
 29 16  1  0
 28 23  1  0
M  END
>  <target>  (128) 
-7.337000000000001

$$$$

     RDKit          3D

  6  6  0  0  0  0  0  0  0  0999 V2000
   -0.2100    1.1629    0.0722 C   0  0  0  0  0  0  0  0  0  0  0  0
   -1.2656    0.2638   -0.0379 C   0  0  0  0  0  0  0  0  0  0  0  0
   -0.9698   -1.0877   -0.1195 C   0  0  0  0  0  0  0  0  0  0  0  0
    0.2861   -1.5847   -0.0984 N   0  0  0  0  0  0  0  0  0  0  0  0
    1.2904   -0.6875    0.0093 C   0  0  0  0  0  0  0  0  0  0  0  0
    1.0949    0.6816    0.0966 C   0  0  0  0  0  0  0  0  0  0  0  0
  1  2  2  0
  2  3  1  0
  3  4  2  0
  4  5  1  0
  5  6  2  0
  6  1  1  0
M  END
>  <target>  (129) 
0.76

$$$$

     RDKit          3D

  8  7  0  0  0  0  0  0  0  0999 V2000
    3.8041    0.2663    0.4480 C   0  0  0  0  0  0  0  0  0  0  0  0
    2.5640   -0.1087   -0.3476 C   0  0  0  0  0  0  0  0  0  0  0  0
    1.2854    0.1847    0.4369 C   0  0  0  0  0  0  0  0  0  0  0  0
    0.0403   -0.1940   -0.3669 C   0  0  0  0  0  0  0  0  0  0  0  0
   -1.2393    0.0996    0.4181 C   0  0  0  0  0  0  0  0  0  0  0  0
   -2.4845   -0.2789   -0.3851 C   0  0  0  0  0  0  0  0  0  0  0  0
   -3.7508    0.0155    0.4010 C   0  0  0  0  0  0  0  0  0  0  0  0
   -5.3109   -0.4789   -0.6533 Br  0  0  0  0  0  0  0  0  0  0  0  0
  1  2  1  0
  2  3  1  0
  3  4  1  0
  4  5  1  0
  5  6  1  0
  6  7  1  0
  7  8  1  0
M  END
>  <target>  (130) 
-4.43

$$$$

     RDKit          3D

  8  8  0  0  0  0  0  0  0  0999 V2000
   -1.3697    1.4060   -0.0308 C   0  0  0  0  0  0  0  0  0  0  0  0
   -0.0769    0.6416   -0.0009 C   0  0  0  0  0  0  0  0  0  0  0  0
    1.1382    1.3345    0.0295 C   0  0  0  0  0  0  0  0  0  0  0  0
    2.3213    0.6135    0.0569 C   0  0  0  0  0  0  0  0  0  0  0  0
    2.3791   -0.7326    0.0562 N   0  0  0  0  0  0  0  0  0  0  0  0
    1.1966   -1.3859    0.0267 C   0  0  0  0  0  0  0  0  0  0  0  0
   -0.0504   -0.7629   -0.0024 C   0  0  0  0  0  0  0  0  0  0  0  0
   -1.3015   -1.5879   -0.0338 C   0  0  0  0  0  0  0  0  0  0  0  0
  1  2  1  0
  2  3  2  0
  3  4  1  0
  4  5  2  0
  5  6  1  0
  6  7  2  0
  7  8  1  0
  7  2  1  0
M  END
>  <target>  (131) 
0.36

$$$$

     RDKit          3D

 27 30  0  0  0  0  0  0  0  0999 V2000
    3.0535    1.7978   -0.6076 C   0  0  0  0  0  0  0  0  0  0  0  0
    2.0228    0.6920   -0.2330 C   0  0  0  0  0  0  0  0  0  0  0  0
    1.2407    1.2205    0.9917 C   0  0  0  0  0  0  0  0  0  0  0  0
   -0.1127    0.5777    1.2979 C   0  0  0  0  0  0  0  0  0  0  0  0
    0.0783   -0.6700    1.9484 O   0  0  0  0  0  0  0  0  0  0  0  0
   -1.0218    0.5178    0.0494 C   0  0  0  0  0  0  0  0  0  0  0  0
   -1.1841    1.8329   -0.3530 F   0  0  0  0  0  0  0  0  0  0  0  0
   -0.3085   -0.1841   -1.1328 C   0  0  0  0  0  0  0  0  0  0  0  0
   -1.2023   -0.1010   -2.3932 C   0  0  0  0  0  0  0  0  0  0  0  0
   -2.5770   -0.7119   -2.1680 C   0  0  0  0  0  0  0  0  0  0  0  0
   -3.2768   -0.0908   -0.9871 C   0  0  0  0  0  0  0  0  0  0  0  0
   -4.5381    0.3577   -1.1150 C   0  0  0  0  0  0  0  0  0  0  0  0
   -5.3103    0.8473    0.0492 C   0  0  0  0  0  0  0  0  0  0  0  0
   -6.4472    1.2801   -0.1196 O   0  0  0  0  0  0  0  0  0  0  0  0
   -4.6971    0.7021    1.4160 C   0  0  0  0  0  0  0  0  0  0  0  0
   -3.1900    0.8979    1.3430 C   0  0  0  0  0  0  0  0  0  0  0  0
   -2.4791   -0.0467    0.3263 C   0  0  0  0  0  0  0  0  0  0  0  0
   -2.4831   -1.4841    0.8974 C   0  0  0  0  0  0  0  0  0  0  0  0
    1.0793    0.4518   -1.4489 C   0  0  0  0  0  0  0  0  0  0  0  0
    1.9040   -0.4477   -2.3919 C   0  0  0  0  0  0  0  0  0  0  0  0
    3.0063   -1.0983   -1.5537 C   0  0  0  0  0  0  0  0  0  0  0  0
    2.7506   -0.6834   -0.0897 C   0  0  0  0  0  0  0  0  0  0  0  0
    1.8797   -1.6691    0.4732 O   0  0  0  0  0  0  0  0  0  0  0  0
    4.0720   -0.6621    0.7197 C   0  0  0  0  0  0  0  0  0  0  0  0
    5.1753   -0.8311    0.1897 O   0  0  0  0  0  0  0  0  0  0  0  0
    3.9912   -0.4318    2.2236 C   0  0  0  0  0  0  0  0  0  0  0  0
    5.1585   -0.9238    2.8718 O   0  0  0  0  0  0  0  0  0  0  0  0
  1  2  1  0
  2  3  1  0
  3  4  1  0
  4  5  1  0
  4  6  1  0
  6  7  1  0
  6  8  1  0
  8  9  1  0
  9 10  1  0
 10 11  1  0
 11 12  2  0
 12 13  1  0
 13 14  2  0
 13 15  1  0
 15 16  1  0
 16 17  1  0
 17 18  1  0
  8 19  1  0
 19 20  1  0
 20 21  1  0
 21 22  1  0
 22 23  1  0
 22 24  1  0
 24 25  2  0
 24 26  1  0
 26 27  1  0
 17  6  1  0
 17 11  1  0
 19  2  1  0
 22  2  1  0
M  END
>  <target>  (132) 
-3.43

$$$$

     RDKit          3D

 15 15  0  0  0  0  0  0  0  0999 V2000
    1.9954    2.1166   -0.2453 C   0  0  0  0  0  0  0  0  0  0  0  0
    2.4232    0.6976   -0.5738 C   0  0  0  0  0  0  0  0  0  0  0  0
    2.9652   -0.2059    0.9140 S   0  0  0  0  0  0  0  0  0  0  0  0
    1.3523   -0.5898    1.6780 C   0  0  0  0  0  0  0  0  0  0  0  0
    0.5058   -1.5514    0.8827 C   0  0  0  0  0  0  0  0  0  0  0  0
    0.9815   -2.8433    0.5982 C   0  0  0  0  0  0  0  0  0  0  0  0
    0.2019   -3.7564   -0.1176 C   0  0  0  0  0  0  0  0  0  0  0  0
   -1.0740   -3.4011   -0.5504 C   0  0  0  0  0  0  0  0  0  0  0  0
   -1.5731   -2.1323   -0.2679 C   0  0  0  0  0  0  0  0  0  0  0  0
   -0.7793   -1.2170    0.4308 C   0  0  0  0  0  0  0  0  0  0  0  0
   -1.3318    0.0273    0.7670 O   0  0  0  0  0  0  0  0  0  0  0  0
   -1.4556    0.9137   -0.2912 C   0  0  0  0  0  0  0  0  0  0  0  0
   -1.0983    0.7201   -1.4446 O   0  0  0  0  0  0  0  0  0  0  0  0
   -2.0438    2.0644    0.1562 N   0  0  0  0  0  0  0  0  0  0  0  0
   -2.4069    3.1302   -0.7371 C   0  0  0  0  0  0  0  0  0  0  0  0
  1  2  1  0
  2  3  1  0
  3  4  1  0
  4  5  1  0
  5  6  2  0
  6  7  1  0
  7  8  2  0
  8  9  1  0
  9 10  2  0
 10 11  1  0
 11 12  1  0
 12 13  2  0
 12 14  1  0
 14 15  1  0
 10  5  1  0
M  END
>  <target>  (133) 
-2.09

$$$$

     RDKit          3D

 11 10  0  0  0  0  0  0  0  0999 V2000
   -3.6674    0.8207    0.4314 C   0  0  0  0  0  0  0  0  0  0  0  0
   -3.2948    0.4462   -0.9908 C   0  0  0  0  0  0  0  0  0  0  0  0
   -1.8712    0.3054   -1.1079 O   0  0  0  0  0  0  0  0  0  0  0  0
   -1.3664   -0.9156   -0.7771 C   0  0  0  0  0  0  0  0  0  0  0  0
   -2.0278   -1.8924   -0.4502 O   0  0  0  0  0  0  0  0  0  0  0  0
    0.1229   -0.9195   -0.9000 C   0  0  0  0  0  0  0  0  0  0  0  0
    0.7958   -0.1596    0.1976 C   0  0  0  0  0  0  0  0  0  0  0  0
    0.2447    0.3373    1.1688 O   0  0  0  0  0  0  0  0  0  0  0  0
    2.1395   -0.1151   -0.0412 O   0  0  0  0  0  0  0  0  0  0  0  0
    2.8926    0.5836    0.9585 C   0  0  0  0  0  0  0  0  0  0  0  0
    4.3547    0.5515    0.5582 C   0  0  0  0  0  0  0  0  0  0  0  0
  1  2  1  0
  2  3  1  0
  3  4  1  0
  4  5  2  0
  4  6  1  0
  6  7  1  0
  7  8  2  0
  7  9  1  0
  9 10  1  0
 10 11  1  0
M  END
>  <target>  (134) 
-0.82

$$$$

     RDKit          3D

 10 10  0  0  0  0  0  0  0  0999 V2000
    3.6429   -0.3649   -0.1742 C   0  0  0  0  0  0  0  0  0  0  0  0
    2.1511   -0.2023   -0.1350 C   0  0  0  0  0  0  0  0  0  0  0  0
    1.3358   -0.8771   -0.9640 C   0  0  0  0  0  0  0  0  0  0  0  0
   -0.1641   -0.7750   -0.9269 C   0  0  0  0  0  0  0  0  0  0  0  0
   -0.7110   -0.0768    0.3383 C   0  0  0  0  0  0  0  0  0  0  0  0
    0.1547    1.1574    0.6537 C   0  0  0  0  0  0  0  0  0  0  0  0
    1.6169    0.7656    0.8905 C   0  0  0  0  0  0  0  0  0  0  0  0
   -2.2112    0.1920    0.2109 C   0  0  0  0  0  0  0  0  0  0  0  0
   -3.0969   -1.0259    0.3028 C   0  0  0  0  0  0  0  0  0  0  0  0
   -2.7599    1.4092    0.0525 C   0  0  0  0  0  0  0  0  0  0  0  0
  1  2  1  0
  2  3  2  0
  3  4  1  0
  4  5  1  0
  5  6  1  0
  6  7  1  0
  5  8  1  0
  8  9  1  0
  8 10  2  0
  7  2  1  0
M  END
>  <target>  (135) 
-4.26

$$$$

     RDKit          3D

  9 10  0  0  0  0  0  0  0  0999 V2000
   -2.1715    0.0647    0.2806 C   0  0  0  0  0  0  0  0  0  0  0  0
   -1.3830   -1.2079   -0.0615 C   0  0  0  0  0  0  0  0  0  0  0  0
    0.0241   -0.7019   -0.0044 C   0  0  0  0  0  0  0  0  0  0  0  0
    1.1937   -1.4387    0.0723 C   0  0  0  0  0  0  0  0  0  0  0  0
    2.4096   -0.7517    0.0754 C   0  0  0  0  0  0  0  0  0  0  0  0
    2.4403    0.6494   -0.0101 C   0  0  0  0  0  0  0  0  0  0  0  0
    1.2555    1.3833   -0.0998 C   0  0  0  0  0  0  0  0  0  0  0  0
    0.0547    0.6944   -0.0896 C   0  0  0  0  0  0  0  0  0  0  0  0
   -1.3291    1.2506   -0.2114 C   0  0  0  0  0  0  0  0  0  0  0  0
  1  2  1  0
  2  3  1  0
  3  4  2  0
  4  5  1  0
  5  6  2  0
  6  7  1  0
  7  8  2  0
  8  9  1  0
  9  1  1  0
  8  3  1  0
M  END
>  <target>  (136) 
-3.04

$$$$

     RDKit          3D

 11 11  0  0  0  0  0  0  0  0999 V2000
   -2.3091    0.7890   -0.2340 C   0  0  0  0  0  0  0  0  0  0  0  0
   -1.3010   -0.2961    0.2073 C   0  0  0  0  0  0  0  0  0  0  0  0
   -1.5705   -0.5895    1.6990 C   0  0  0  0  0  0  0  0  0  0  0  0
   -1.6023   -1.5630   -0.6222 C   0  0  0  0  0  0  0  0  0  0  0  0
    0.1717    0.1085    0.0174 C   0  0  0  0  0  0  0  0  0  0  0  0
    1.2029   -0.7840    0.3776 C   0  0  0  0  0  0  0  0  0  0  0  0
    2.5518   -0.4497    0.2189 C   0  0  0  0  0  0  0  0  0  0  0  0
    2.8898    0.7893   -0.3054 C   0  0  0  0  0  0  0  0  0  0  0  0
    4.1897    1.1602   -0.4788 O   0  0  0  0  0  0  0  0  0  0  0  0
    1.9024    1.6914   -0.6702 C   0  0  0  0  0  0  0  0  0  0  0  0
    0.5542    1.3540   -0.5102 C   0  0  0  0  0  0  0  0  0  0  0  0
  1  2  1  0
  2  3  1  0
  2  4  1  0
  2  5  1  0
  5  6  2  0
  6  7  1  0
  7  8  2  0
  8  9  1  0
  8 10  1  0
 10 11  2  0
 11  5  1  0
M  END
>  <target>  (137) 
-2.41

$$$$

     RDKit          3D

 11 12  0  0  0  0  0  0  0  0999 V2000
    3.4988    0.3887   -0.2366 O   0  0  0  0  0  0  0  0  0  0  0  0
    2.2822    0.2535   -0.1543 C   0  0  0  0  0  0  0  0  0  0  0  0
    1.4733    1.2972    0.1617 N   0  0  0  0  0  0  0  0  0  0  0  0
    0.1124    1.2616    0.2803 C   0  0  0  0  0  0  0  0  0  0  0  0
   -0.5302    2.2653    0.5716 O   0  0  0  0  0  0  0  0  0  0  0  0
   -0.5450   -0.0605    0.0369 C   0  0  0  0  0  0  0  0  0  0  0  0
   -1.9351   -0.0397   -0.6014 C   0  0  0  0  0  0  0  0  0  0  0  0
   -1.7994   -0.3752    0.8540 C   0  0  0  0  0  0  0  0  0  0  0  0
    0.3471   -1.2106   -0.3114 C   0  0  0  0  0  0  0  0  0  0  0  0
   -0.0936   -2.3346   -0.5294 O   0  0  0  0  0  0  0  0  0  0  0  0
    1.6862   -0.9462   -0.3753 N   0  0  0  0  0  0  0  0  0  0  0  0
  1  2  2  0
  2  3  1  0
  3  4  1  0
  4  5  2  0
  4  6  1  0
  6  7  1  0
  7  8  1  0
  6  9  1  0
  9 10  2  0
  9 11  1  0
  8  6  1  0
 11  2  1  0
M  END
>  <target>  (138) 
-1.886

$$$$

     RDKit          3D

  8  8  0  0  0  0  0  0  0  0999 V2000
    2.8889   -1.1196   -0.0932 Cl  0  0  0  0  0  0  0  0  0  0  0  0
    1.2980   -0.4645   -0.0425 C   0  0  0  0  0  0  0  0  0  0  0  0
    1.1212    0.9191   -0.0575 C   0  0  0  0  0  0  0  0  0  0  0  0
   -0.1671    1.4537   -0.0165 C   0  0  0  0  0  0  0  0  0  0  0  0
   -1.2732    0.6037    0.0393 C   0  0  0  0  0  0  0  0  0  0  0  0
   -1.0850   -0.7798    0.0539 C   0  0  0  0  0  0  0  0  0  0  0  0
   -2.7343   -2.0431    0.1371 I   0  0  0  0  0  0  0  0  0  0  0  0
    0.1997   -1.3211    0.0132 C   0  0  0  0  0  0  0  0  0  0  0  0
  1  2  1  0
  2  3  2  0
  3  4  1  0
  4  5  2  0
  5  6  1  0
  6  7  1  0
  6  8  2  0
  8  2  1  0
M  END
>  <target>  (139) 
-3.55

$$$$

     RDKit          3D

 11 12  0  0  0  0  0  0  0  0999 V2000
    1.3090    3.2976   -0.0607 Br  0  0  0  0  0  0  0  0  0  0  0  0
    1.2100    1.3940   -0.0544 C   0  0  0  0  0  0  0  0  0  0  0  0
    2.4294    0.7093   -0.1072 C   0  0  0  0  0  0  0  0  0  0  0  0
    2.4484   -0.6803   -0.1066 C   0  0  0  0  0  0  0  0  0  0  0  0
    1.2497   -1.3883   -0.0534 C   0  0  0  0  0  0  0  0  0  0  0  0
    0.0153   -0.7206    0.0001 C   0  0  0  0  0  0  0  0  0  0  0  0
   -1.1796   -1.4579    0.0532 C   0  0  0  0  0  0  0  0  0  0  0  0
   -2.4171   -0.8190    0.1067 C   0  0  0  0  0  0  0  0  0  0  0  0
   -2.4768    0.5676    0.1080 C   0  0  0  0  0  0  0  0  0  0  0  0
   -1.2983    1.3158    0.0556 C   0  0  0  0  0  0  0  0  0  0  0  0
   -0.0250    0.6969    0.0004 C   0  0  0  0  0  0  0  0  0  0  0  0
  1  2  1  0
  2  3  2  0
  3  4  1  0
  4  5  2  0
  5  6  1  0
  6  7  2  0
  7  8  1  0
  8  9  2  0
  9 10  1  0
 10 11  2  0
 11  2  1  0
 11  6  1  0
M  END
>  <target>  (140) 
-4.35

$$$$

     RDKit          3D

  5  4  0  0  0  0  0  0  0  0999 V2000
   -2.2177    0.2065   -0.6361 C   0  0  0  0  0  0  0  0  0  0  0  0
   -1.2322   -0.6839    0.1045 C   0  0  0  0  0  0  0  0  0  0  0  0
    0.0346    0.0532    0.4302 C   0  0  0  0  0  0  0  0  0  0  0  0
    1.2445   -0.2962   -0.0336 C   0  0  0  0  0  0  0  0  0  0  0  0
    2.5067    0.4328    0.2946 C   0  0  0  0  0  0  0  0  0  0  0  0
  1  2  1  0
  2  3  1  0
  3  4  2  0
  4  5  1  0
M  END
>  <target>  (141) 
-2.54

$$$$

     RDKit          3D

  8  8  0  0  0  0  0  0  0  0999 V2000
    2.3854   -1.1157   -0.0827 C   0  0  0  0  0  0  0  0  0  0  0  0
    1.1463   -0.2721   -0.0798 C   0  0  0  0  0  0  0  0  0  0  0  0
    1.2344    1.0987   -0.2972 C   0  0  0  0  0  0  0  0  0  0  0  0
    0.0665    1.8530   -0.2882 C   0  0  0  0  0  0  0  0  0  0  0  0
   -1.1512    1.2207   -0.0636 C   0  0  0  0  0  0  0  0  0  0  0  0
   -1.1616   -0.1541    0.1461 C   0  0  0  0  0  0  0  0  0  0  0  0
   -2.4566   -0.8682    0.3913 C   0  0  0  0  0  0  0  0  0  0  0  0
   -0.0324   -0.9018    0.1403 N   0  0  0  0  0  0  0  0  0  0  0  0
  1  2  1  0
  2  3  2  0
  3  4  1  0
  4  5  2  0
  5  6  1  0
  6  7  1  0
  6  8  2  0
  8  2  1  0
M  END
>  <target>  (142) 
0.45

$$$$

     RDKit          3D

  5  4  0  0  0  0  0  0  0  0999 V2000
    1.9798    0.7721   -0.3741 Cl  0  0  0  0  0  0  0  0  0  0  0  0
    0.6627   -0.2312    0.0715 C   0  0  0  0  0  0  0  0  0  0  0  0
   -0.6304    0.0904   -0.0160 C   0  0  0  0  0  0  0  0  0  0  0  0
   -1.1937    1.6103   -0.6085 Cl  0  0  0  0  0  0  0  0  0  0  0  0
   -1.8281   -1.0550    0.4829 Cl  0  0  0  0  0  0  0  0  0  0  0  0
  1  2  1  0
  2  3  2  3
  3  4  1  0
  3  5  1  0
M  END
>  <target>  (143) 
-1.96

$$$$

     RDKit          3D

 11 12  0  0  0  0  0  0  0  0999 V2000
    2.5112   -1.1311   -0.2143 N   0  0  0  0  0  0  0  0  0  0  0  0
    1.5380   -0.1084   -0.1664 C   0  0  0  0  0  0  0  0  0  0  0  0
    1.9329    1.1865   -0.5318 C   0  0  0  0  0  0  0  0  0  0  0  0
    1.0119    2.2283   -0.5828 C   0  0  0  0  0  0  0  0  0  0  0  0
   -0.3296    1.9798   -0.3096 C   0  0  0  0  0  0  0  0  0  0  0  0
   -0.7726    0.6834   -0.0111 C   0  0  0  0  0  0  0  0  0  0  0  0
   -2.1374    0.4431    0.2217 C   0  0  0  0  0  0  0  0  0  0  0  0
   -2.6050   -0.8422    0.4898 C   0  0  0  0  0  0  0  0  0  0  0  0
   -1.7136   -1.9058    0.5228 C   0  0  0  0  0  0  0  0  0  0  0  0
   -0.3525   -1.6818    0.2992 C   0  0  0  0  0  0  0  0  0  0  0  0
    0.1573   -0.3875    0.0400 C   0  0  0  0  0  0  0  0  0  0  0  0
  1  2  1  0
  2  3  2  0
  3  4  1  0
  4  5  2  0
  5  6  1  0
  6  7  2  0
  7  8  1  0
  8  9  2  0
  9 10  1  0
 10 11  2  0
 11  2  1  0
 11  6  1  0
M  END
>  <target>  (144) 
-1.92

$$$$

     RDKit          3D

  8  8  0  0  0  0  0  0  0  0999 V2000
   -2.5921   -0.6232    0.0785 C   0  0  0  0  0  0  0  0  0  0  0  0
   -1.2231   -0.0105    0.0907 C   0  0  0  0  0  0  0  0  0  0  0  0
   -1.0687    1.3778    0.1708 C   0  0  0  0  0  0  0  0  0  0  0  0
    0.2037    1.9483    0.1431 C   0  0  0  0  0  0  0  0  0  0  0  0
    1.3325    1.1371    0.0288 C   0  0  0  0  0  0  0  0  0  0  0  0
    1.1989   -0.2532   -0.0526 C   0  0  0  0  0  0  0  0  0  0  0  0
    2.4088   -1.1244   -0.2173 C   0  0  0  0  0  0  0  0  0  0  0  0
   -0.0842   -0.8173   -0.0386 C   0  0  0  0  0  0  0  0  0  0  0  0
  1  2  1  0
  2  3  2  0
  3  4  1  0
  4  5  2  0
  5  6  1  0
  6  7  1  0
  6  8  2  0
  8  2  1  0
M  END
>  <target>  (145) 
-2.82

$$$$

     RDKit          3D

 11 12  0  0  0  0  0  0  0  0999 V2000
    3.5544   -0.1397    0.5335 O   0  0  0  0  0  0  0  0  0  0  0  0
    2.2372    0.1701    0.4244 C   0  0  0  0  0  0  0  0  0  0  0  0
    1.9001    1.4538    0.4846 N   0  0  0  0  0  0  0  0  0  0  0  0
    0.5780    1.6884    0.3695 C   0  0  0  0  0  0  0  0  0  0  0  0
   -0.3830    0.7167    0.2023 C   0  0  0  0  0  0  0  0  0  0  0  0
   -1.7072    1.0048    0.0909 N   0  0  0  0  0  0  0  0  0  0  0  0
   -2.5219   -0.0554   -0.0682 C   0  0  0  0  0  0  0  0  0  0  0  0
   -2.0306   -1.3421   -0.1131 C   0  0  0  0  0  0  0  0  0  0  0  0
   -0.7105   -1.6195   -0.0013 N   0  0  0  0  0  0  0  0  0  0  0  0
    0.1321   -0.5932    0.1580 C   0  0  0  0  0  0  0  0  0  0  0  0
    1.4297   -0.8720    0.2674 N   0  0  0  0  0  0  0  0  0  0  0  0
  1  2  1  0
  2  3  2  0
  3  4  1  0
  4  5  2  0
  5  6  1  0
  6  7  2  0
  7  8  1  0
  8  9  2  0
  9 10  1  0
 10 11  2  0
 10  5  1  0
 11  2  1  0
M  END
>  <target>  (146) 
-1.9469999999999998

$$$$

     RDKit          3D

  2  1  0  0  0  0  0  0  0  0999 V2000
   -0.3711    0.0037   -0.0071 C   0  0  0  0  0  0  0  0  0  0  0  0
    0.9161   -0.5798   -0.0902 O   0  0  0  0  0  0  0  0  0  0  0  0
  1  2  1  0
M  END
>  <target>  (147) 
1.57

$$$$

     RDKit          3D

 16 16  0  0  0  0  0  0  0  0999 V2000
   -1.7298   -0.9034    2.6703 C   0  0  0  0  0  0  0  0  0  0  0  0
   -1.9548   -1.2138    1.1944 C   0  0  0  0  0  0  0  0  0  0  0  0
   -1.1721   -0.3141    0.1895 C   0  0  0  0  0  0  0  0  0  0  0  0
    0.3505   -0.3487    0.4825 C   0  0  0  0  0  0  0  0  0  0  0  0
    1.2148    0.4191   -0.5364 C   0  0  0  0  0  0  0  0  0  0  0  0
    2.6934    0.5322   -0.1140 C   0  0  0  0  0  0  0  0  0  0  0  0
    3.4488    1.4230   -1.1037 C   0  0  0  0  0  0  0  0  0  0  0  0
    3.3802   -0.8310   -0.0192 C   0  0  0  0  0  0  0  0  0  0  0  0
   -1.4713   -0.8957   -1.1873 C   0  0  0  0  0  0  0  0  0  0  0  0
   -0.7742   -1.7431   -1.7400 O   0  0  0  0  0  0  0  0  0  0  0  0
   -2.6338   -0.4770   -1.7748 N   0  0  0  0  0  0  0  0  0  0  0  0
   -3.2455    0.7080   -1.5099 C   0  0  0  0  0  0  0  0  0  0  0  0
   -4.0158    1.2240   -2.3128 O   0  0  0  0  0  0  0  0  0  0  0  0
   -2.8985    1.3367   -0.3559 N   0  0  0  0  0  0  0  0  0  0  0  0
   -1.7223    1.1021    0.2999 C   0  0  0  0  0  0  0  0  0  0  0  0
   -1.1989    1.9932    0.9641 O   0  0  0  0  0  0  0  0  0  0  0  0
  1  2  1  0
  2  3  1  0
  3  4  1  0
  4  5  1  0
  5  6  1  0
  6  7  1  0
  6  8  1  0
  3  9  1  0
  9 10  2  0
  9 11  1  0
 11 12  1  0
 12 13  2  0
 12 14  1  0
 14 15  1  0
 15 16  2  0
 15  3  1  0
M  END
>  <target>  (148) 
-2.468

$$$$

     RDKit          3D

  5  4  0  0  0  0  0  0  0  0999 V2000
    1.8600   -0.4137   -0.1554 C   0  0  0  0  0  0  0  0  0  0  0  0
    0.3733   -0.5539    0.1170 C   0  0  0  0  0  0  0  0  0  0  0  0
   -0.4385    0.5862   -0.4698 C   0  0  0  0  0  0  0  0  0  0  0  0
    0.0706    1.5149   -1.0954 O   0  0  0  0  0  0  0  0  0  0  0  0
   -1.9270    0.5250   -0.2450 C   0  0  0  0  0  0  0  0  0  0  0  0
  1  2  1  0
  2  3  1  0
  3  4  2  0
  3  5  1  0
M  END
>  <target>  (149) 
0.52

$$$$

     RDKit          3D

  9  9  0  0  0  0  0  0  0  0999 V2000
    0.2167    2.7101   -0.2373 F   0  0  0  0  0  0  0  0  0  0  0  0
    0.1509    1.3717   -0.1208 C   0  0  0  0  0  0  0  0  0  0  0  0
    1.2378    0.6010   -0.0714 C   0  0  0  0  0  0  0  0  0  0  0  0
    1.1244   -0.7590    0.0478 N   0  0  0  0  0  0  0  0  0  0  0  0
   -0.0781   -1.4150    0.1234 C   0  0  0  0  0  0  0  0  0  0  0  0
   -0.1459   -2.6339    0.2297 O   0  0  0  0  0  0  0  0  0  0  0  0
   -1.1911   -0.6191    0.0722 N   0  0  0  0  0  0  0  0  0  0  0  0
   -1.1906    0.7495   -0.0459 C   0  0  0  0  0  0  0  0  0  0  0  0
   -2.2263    1.4037   -0.0861 O   0  0  0  0  0  0  0  0  0  0  0  0
  1  2  1  0
  2  3  2  0
  3  4  1  0
  4  5  1  0
  5  6  2  0
  5  7  1  0
  7  8  1  0
  8  9  2  0
  8  2  1  0
M  END
>  <target>  (150) 
-1.077

$$$$

     RDKit          3D

 19 21  0  0  0  0  0  0  0  0999 V2000
   -5.3897   -0.1544   -0.2215 N   0  0  0  0  0  0  0  0  0  0  0  0
   -4.1162    0.0891   -0.7164 C   0  0  0  0  0  0  0  0  0  0  0  0
   -4.0091    0.4136   -2.0195 N   0  0  0  0  0  0  0  0  0  0  0  0
   -2.7817    0.6572   -2.5169 C   0  0  0  0  0  0  0  0  0  0  0  0
   -1.5969    0.6306   -1.8742 N   0  0  0  0  0  0  0  0  0  0  0  0
   -1.7550    0.3222   -0.5729 C   0  0  0  0  0  0  0  0  0  0  0  0
   -0.7419    0.2313    0.3555 N   0  0  0  0  0  0  0  0  0  0  0  0
   -1.2729   -0.1271    1.5719 C   0  0  0  0  0  0  0  0  0  0  0  0
   -2.6378   -0.2564    1.4216 C   0  0  0  0  0  0  0  0  0  0  0  0
   -2.9537    0.0345    0.0660 C   0  0  0  0  0  0  0  0  0  0  0  0
    0.6607    0.5058    0.0512 C   0  0  0  0  0  0  0  0  0  0  0  0
    1.4605    0.3860    1.2524 O   0  0  0  0  0  0  0  0  0  0  0  0
    2.5786   -0.4780    0.9473 C   0  0  0  0  0  0  0  0  0  0  0  0
    3.8284   -0.0187    1.6895 C   0  0  0  0  0  0  0  0  0  0  0  0
    4.8789   -0.9679    1.5322 O   0  0  0  0  0  0  0  0  0  0  0  0
    2.7064   -0.4924   -0.5734 C   0  0  0  0  0  0  0  0  0  0  0  0
    3.3446    0.6893   -1.0776 O   0  0  0  0  0  0  0  0  0  0  0  0
    1.2458   -0.4665   -0.9845 C   0  0  0  0  0  0  0  0  0  0  0  0
    1.1216   -0.0303   -2.3408 O   0  0  0  0  0  0  0  0  0  0  0  0
  1  2  1  0
  2  3  2  0
  3  4  1  0
  4  5  2  0
  5  6  1  0
  6  7  1  0
  7  8  1  0
  8  9  2  0
  9 10  1  0
  7 11  1  0
 11 12  1  0
 12 13  1  0
 13 14  1  0
 14 15  1  0
 13 16  1  0
 16 17  1  0
 16 18  1  0
 18 19  1  0
 10  2  1  0
 10  6  2  0
 18 11  1  0
M  END
>  <target>  (151) 
-1.95

$$$$

     RDKit          3D

  8  8  0  0  0  0  0  0  0  0999 V2000
    2.3139   -1.1336    0.1356 O   0  0  0  0  0  0  0  0  0  0  0  0
    1.1437   -0.4348    0.0720 C   0  0  0  0  0  0  0  0  0  0  0  0
    1.1285    0.9573    0.1265 C   0  0  0  0  0  0  0  0  0  0  0  0
   -0.0917    1.6325    0.0581 C   0  0  0  0  0  0  0  0  0  0  0  0
   -1.2816    0.9134   -0.0637 C   0  0  0  0  0  0  0  0  0  0  0  0
   -1.2452   -0.4763   -0.1164 C   0  0  0  0  0  0  0  0  0  0  0  0
   -2.4316   -1.1389   -0.2357 O   0  0  0  0  0  0  0  0  0  0  0  0
   -0.0365   -1.1614   -0.0493 C   0  0  0  0  0  0  0  0  0  0  0  0
  1  2  1  0
  2  3  2  0
  3  4  1  0
  4  5  2  0
  5  6  1  0
  6  7  1  0
  6  8  2  0
  8  2  1  0
M  END
>  <target>  (152) 
0.81

$$$$

     RDKit          3D

  7  6  0  0  0  0  0  0  0  0999 V2000
   -3.3826   -0.0839   -0.1672 C   0  0  0  0  0  0  0  0  0  0  0  0
   -2.0818    0.0747    0.6037 C   0  0  0  0  0  0  0  0  0  0  0  0
   -0.8664   -0.1031   -0.3060 C   0  0  0  0  0  0  0  0  0  0  0  0
    0.4399    0.0572    0.4731 C   0  0  0  0  0  0  0  0  0  0  0  0
    1.6544   -0.1205   -0.4356 C   0  0  0  0  0  0  0  0  0  0  0  0
    2.9593    0.0378    0.3337 C   0  0  0  0  0  0  0  0  0  0  0  0
    4.0618   -0.1522   -0.5428 O   0  0  0  0  0  0  0  0  0  0  0  0
  1  2  1  0
  2  3  1  0
  3  4  1  0
  4  5  1  0
  5  6  1  0
  6  7  1  0
M  END
>  <target>  (153) 
-1.24

$$$$

     RDKit          3D

  6  5  0  0  0  0  0  0  0  0999 V2000
    2.4634    0.4195    0.5551 C   0  0  0  0  0  0  0  0  0  0  0  0
    1.3644   -0.2716   -0.2362 C   0  0  0  0  0  0  0  0  0  0  0  0
   -0.0232    0.1470    0.2492 C   0  0  0  0  0  0  0  0  0  0  0  0
   -1.1261   -0.5502   -0.5492 C   0  0  0  0  0  0  0  0  0  0  0  0
   -2.5059   -0.1291   -0.0609 C   0  0  0  0  0  0  0  0  0  0  0  0
   -3.7739   -0.9495   -1.0004 Cl  0  0  0  0  0  0  0  0  0  0  0  0
  1  2  1  0
  2  3  1  0
  3  4  1  0
  4  5  1  0
  5  6  1  0
M  END
>  <target>  (154) 
-2.73

$$$$

     RDKit          3D

  4  3  0  0  0  0  0  0  0  0999 V2000
   -1.7974    0.3043    0.1907 C   0  0  0  0  0  0  0  0  0  0  0  0
   -0.5099    0.4956   -0.1189 C   0  0  0  0  0  0  0  0  0  0  0  0
    0.5099   -0.4956    0.1189 C   0  0  0  0  0  0  0  0  0  0  0  0
    1.7974   -0.3043   -0.1907 C   0  0  0  0  0  0  0  0  0  0  0  0
  1  2  2  0
  2  3  1  0
  3  4  2  0
M  END
>  <target>  (155) 
-1.87

$$$$

     RDKit          3D

  7  6  0  0  0  0  0  0  0  0999 V2000
   -2.8784   -0.3365   -0.0969 C   0  0  0  0  0  0  0  0  0  0  0  0
   -1.4639   -0.5656    0.4043 C   0  0  0  0  0  0  0  0  0  0  0  0
   -0.4378    0.1958   -0.4259 C   0  0  0  0  0  0  0  0  0  0  0  0
    0.8619   -0.0771    0.1150 O   0  0  0  0  0  0  0  0  0  0  0  0
    1.8797    0.5464   -0.5390 C   0  0  0  0  0  0  0  0  0  0  0  0
    1.7571    1.2842   -1.5064 O   0  0  0  0  0  0  0  0  0  0  0  0
    3.1887    0.1980    0.1005 C   0  0  0  0  0  0  0  0  0  0  0  0
  1  2  1  0
  2  3  1  0
  3  4  1  0
  4  5  1  0
  5  6  2  0
  5  7  1  0
M  END
>  <target>  (156) 
-0.72

$$$$

     RDKit          3D

 11 12  0  0  0  0  0  0  0  0999 V2000
    3.8855    0.6443   -0.5883 O   0  0  0  0  0  0  0  0  0  0  0  0
    2.6197    0.1574   -0.4440 C   0  0  0  0  0  0  0  0  0  0  0  0
    2.3365   -1.1893   -0.6329 C   0  0  0  0  0  0  0  0  0  0  0  0
    1.0247   -1.6404   -0.4792 C   0  0  0  0  0  0  0  0  0  0  0  0
   -0.0062   -0.7484   -0.1427 C   0  0  0  0  0  0  0  0  0  0  0  0
   -1.4053   -1.2821    0.0467 C   0  0  0  0  0  0  0  0  0  0  0  0
   -2.4743   -0.1911    0.0311 C   0  0  0  0  0  0  0  0  0  0  0  0
   -2.0622    0.9710    0.9256 C   0  0  0  0  0  0  0  0  0  0  0  0
   -0.7776    1.6146    0.4070 C   0  0  0  0  0  0  0  0  0  0  0  0
    0.2958    0.6102    0.0667 C   0  0  0  0  0  0  0  0  0  0  0  0
    1.6156    1.0551   -0.1003 C   0  0  0  0  0  0  0  0  0  0  0  0
  1  2  1  0
  2  3  2  0
  3  4  1  0
  4  5  2  0
  5  6  1  0
  6  7  1  0
  7  8  1  0
  8  9  1  0
  9 10  1  0
 10 11  2  0
 10  5  1  0
 11  2  1  0
M  END
>  <target>  (157) 
-1.99

$$$$

     RDKit          3D

  5  4  0  0  0  0  0  0  0  0999 V2000
    1.3501    0.0344    0.1586 N   0  0  0  0  0  0  0  0  0  0  0  0
    0.2151   -0.4660   -0.4147 C   0  0  0  0  0  0  0  0  0  0  0  0
    0.2945   -1.3219   -1.2922 O   0  0  0  0  0  0  0  0  0  0  0  0
   -1.1096    0.0075    0.1493 C   0  0  0  0  0  0  0  0  0  0  0  0
   -1.0317    1.7213    0.6226 Cl  0  0  0  0  0  0  0  0  0  0  0  0
  1  2  1  0
  2  3  2  0
  2  4  1  0
  4  5  1  0
M  END
>  <target>  (158) 
-0.02

$$$$

     RDKit          3D

 16 16  0  0  0  0  0  0  0  0999 V2000
   -2.7365   -1.6861   -1.4911 C   0  0  0  0  0  0  0  0  0  0  0  0
   -2.6539   -0.4201   -0.8655 O   0  0  0  0  0  0  0  0  0  0  0  0
   -1.4315   -0.1548    0.1645 P   0  0  0  0  0  0  0  0  0  0  0  0
   -1.3951   -1.2568    1.7613 S   0  0  0  0  0  0  0  0  0  0  0  0
   -1.5723    1.4429    0.3980 O   0  0  0  0  0  0  0  0  0  0  0  0
   -2.7258    1.9246    1.0592 C   0  0  0  0  0  0  0  0  0  0  0  0
   -0.1532   -0.2249   -0.8329 O   0  0  0  0  0  0  0  0  0  0  0  0
    1.1252   -0.1121   -0.3585 C   0  0  0  0  0  0  0  0  0  0  0  0
    1.5875    1.1126    0.1203 C   0  0  0  0  0  0  0  0  0  0  0  0
    2.9000    1.2284    0.5927 C   0  0  0  0  0  0  0  0  0  0  0  0
    3.3871    2.7813    1.1742 Cl  0  0  0  0  0  0  0  0  0  0  0  0
    3.7495    0.1131    0.5727 C   0  0  0  0  0  0  0  0  0  0  0  0
    5.7334    0.1634    1.2548 I   0  0  0  0  0  0  0  0  0  0  0  0
    3.2845   -1.1107    0.0729 C   0  0  0  0  0  0  0  0  0  0  0  0
    1.9756   -1.2190   -0.3975 C   0  0  0  0  0  0  0  0  0  0  0  0
    1.4361   -2.7356   -1.0178 Cl  0  0  0  0  0  0  0  0  0  0  0  0
  1  2  1  0
  2  3  1  0
  3  4  2  0
  3  5  1  0
  5  6  1  0
  3  7  1  0
  7  8  1  0
  8  9  2  0
  9 10  1  0
 10 11  1  0
 10 12  2  0
 12 13  1  0
 12 14  1  0
 14 15  2  0
 15 16  1  0
 15  8  1  0
M  END
>  <target>  (159) 
-6.62

$$$$

     RDKit          3D

  8  8  0  0  0  0  0  0  0  0999 V2000
   -2.2585   -0.0313    0.1312 C   0  0  0  0  0  0  0  0  0  0  0  0
   -0.7623   -0.0102    0.0193 C   0  0  0  0  0  0  0  0  0  0  0  0
   -0.0379   -1.2089   -0.0210 C   0  0  0  0  0  0  0  0  0  0  0  0
    1.3569   -1.1900   -0.0935 C   0  0  0  0  0  0  0  0  0  0  0  0
    2.0323    0.0281   -0.1152 C   0  0  0  0  0  0  0  0  0  0  0  0
    3.7507    0.0518   -0.2032 Cl  0  0  0  0  0  0  0  0  0  0  0  0
    1.3253    1.2272   -0.0610 C   0  0  0  0  0  0  0  0  0  0  0  0
   -0.0695    1.2076    0.0115 C   0  0  0  0  0  0  0  0  0  0  0  0
  1  2  1  0
  2  3  2  0
  3  4  1  0
  4  5  2  0
  5  6  1  0
  5  7  1  0
  7  8  2  0
  8  2  1  0
M  END
>  <target>  (160) 
-3.08

$$$$

     RDKit          3D

 14 14  0  0  0  0  0  0  0  0999 V2000
    4.4757    1.3967   -0.3014 C   0  0  0  0  0  0  0  0  0  0  0  0
    3.8490   -0.1071   -1.0802 S   0  0  0  0  0  0  0  0  0  0  0  0
    2.1579   -0.0419   -0.5979 C   0  0  0  0  0  0  0  0  0  0  0  0
    1.6720    1.0593   -0.1252 N   0  0  0  0  0  0  0  0  0  0  0  0
    0.3365    1.1309    0.2710 N   0  0  0  0  0  0  0  0  0  0  0  0
   -0.4540    0.1142    0.0983 C   0  0  0  0  0  0  0  0  0  0  0  0
    0.0486   -1.1654   -0.5484 C   0  0  0  0  0  0  0  0  0  0  0  0
   -0.7195   -2.0707   -0.8513 O   0  0  0  0  0  0  0  0  0  0  0  0
    1.4095   -1.1875   -0.7871 N   0  0  0  0  0  0  0  0  0  0  0  0
    1.9723   -2.4014   -1.3174 N   0  0  0  0  0  0  0  0  0  0  0  0
   -1.9278    0.1970    0.5480 C   0  0  0  0  0  0  0  0  0  0  0  0
   -2.8561    0.1275   -0.6732 C   0  0  0  0  0  0  0  0  0  0  0  0
   -2.2492   -0.9293    1.5419 C   0  0  0  0  0  0  0  0  0  0  0  0
   -2.1917    1.5400    1.2641 C   0  0  0  0  0  0  0  0  0  0  0  0
  1  2  1  0
  2  3  1  0
  3  4  2  0
  4  5  1  0
  5  6  2  0
  6  7  1  0
  7  8  2  0
  7  9  1  0
  9 10  1  0
  6 11  1  0
 11 12  1  0
 11 13  1  0
 11 14  1  0
  9  3  1  0
M  END
>  <target>  (161) 
-2.253

$$$$

     RDKit          3D

 26 28  0  0  0  0  0  0  0  0999 V2000
    6.4885   -1.1260    0.1030 C   0  0  0  0  0  0  0  0  0  0  0  0
    4.9918   -1.0522    0.1651 C   0  0  0  0  0  0  0  0  0  0  0  0
    4.2897   -1.7113    1.1797 C   0  0  0  0  0  0  0  0  0  0  0  0
    2.8946   -1.6645    1.2163 C   0  0  0  0  0  0  0  0  0  0  0  0
    2.1877   -0.9677    0.2368 C   0  0  0  0  0  0  0  0  0  0  0  0
    0.8283   -0.9720    0.3662 O   0  0  0  0  0  0  0  0  0  0  0  0
   -0.1830   -0.1204   -0.5595 P   0  0  0  0  0  0  0  0  0  0  0  0
   -0.1451   -0.4575   -2.0244 O   0  0  0  0  0  0  0  0  0  0  0  0
   -1.6110   -0.3321    0.1602 O   0  0  0  0  0  0  0  0  0  0  0  0
   -2.3021   -1.5088    0.1968 C   0  0  0  0  0  0  0  0  0  0  0  0
   -1.8940   -2.6798   -0.4352 C   0  0  0  0  0  0  0  0  0  0  0  0
   -2.6827   -3.8280   -0.3411 C   0  0  0  0  0  0  0  0  0  0  0  0
   -3.8740   -3.8072    0.3855 C   0  0  0  0  0  0  0  0  0  0  0  0
   -4.2851   -2.6387    1.0349 C   0  0  0  0  0  0  0  0  0  0  0  0
   -5.5823   -2.6000    1.7863 C   0  0  0  0  0  0  0  0  0  0  0  0
   -3.4955   -1.4873    0.9229 C   0  0  0  0  0  0  0  0  0  0  0  0
    0.1877    1.4063   -0.1978 O   0  0  0  0  0  0  0  0  0  0  0  0
   -0.4682    2.5118   -0.6645 C   0  0  0  0  0  0  0  0  0  0  0  0
   -1.5346    2.4476   -1.5624 C   0  0  0  0  0  0  0  0  0  0  0  0
   -2.1607    3.6199   -1.9891 C   0  0  0  0  0  0  0  0  0  0  0  0
   -1.7223    4.8563   -1.5230 C   0  0  0  0  0  0  0  0  0  0  0  0
   -0.6538    4.9248   -0.6297 C   0  0  0  0  0  0  0  0  0  0  0  0
   -0.0159    3.7553   -0.1929 C   0  0  0  0  0  0  0  0  0  0  0  0
    1.1364    3.8419    0.7686 C   0  0  0  0  0  0  0  0  0  0  0  0
    2.8764   -0.3265   -0.7892 C   0  0  0  0  0  0  0  0  0  0  0  0
    4.2734   -0.3719   -0.8253 C   0  0  0  0  0  0  0  0  0  0  0  0
  1  2  1  0
  2  3  2  0
  3  4  1  0
  4  5  2  0
  5  6  1  0
  6  7  1  0
  7  8  2  0
  7  9  1  0
  9 10  1  0
 10 11  2  0
 11 12  1  0
 12 13  2  0
 13 14  1  0
 14 15  1  0
 14 16  2  0
  7 17  1  0
 17 18  1  0
 18 19  2  0
 19 20  1  0
 20 21  2  0
 21 22  1  0
 22 23  2  0
 23 24  1  0
  5 25  1  0
 25 26  2  0
 26  2  1  0
 16 10  1  0
 23 18  1  0
M  END
>  <target>  (162) 
-6.01

$$$$

     RDKit          3D

  7  6  0  0  0  0  0  0  0  0999 V2000
    3.0091    0.0759   -0.3630 C   0  0  0  0  0  0  0  0  0  0  0  0
    1.6663   -0.6367   -0.3421 C   0  0  0  0  0  0  0  0  0  0  0  0
    0.5093    0.3525   -0.2043 C   0  0  0  0  0  0  0  0  0  0  0  0
   -0.8392   -0.3679   -0.1836 C   0  0  0  0  0  0  0  0  0  0  0  0
   -1.9939    0.6191   -0.0461 C   0  0  0  0  0  0  0  0  0  0  0  0
   -3.3408   -0.0626   -0.0227 C   0  0  0  0  0  0  0  0  0  0  0  0
   -3.5129   -1.2741   -0.1037 O   0  0  0  0  0  0  0  0  0  0  0  0
  1  2  1  0
  2  3  1  0
  3  4  1  0
  4  5  1  0
  5  6  1  0
  6  7  2  0
M  END
>  <target>  (163) 
-1.3

$$$$

     RDKit          3D

 14 14  0  0  0  0  0  0  0  0999 V2000
   -5.1043    1.5539   -0.2742 C   0  0  0  0  0  0  0  0  0  0  0  0
   -4.2733    0.2998   -0.0554 C   0  0  0  0  0  0  0  0  0  0  0  0
   -2.7790    0.6080   -0.0793 C   0  0  0  0  0  0  0  0  0  0  0  0
   -1.9414   -0.6470    0.1398 C   0  0  0  0  0  0  0  0  0  0  0  0
   -0.5588   -0.2686    0.1024 O   0  0  0  0  0  0  0  0  0  0  0  0
    0.3049   -1.2982    0.2869 C   0  0  0  0  0  0  0  0  0  0  0  0
   -0.0044   -2.4651    0.4700 O   0  0  0  0  0  0  0  0  0  0  0  0
    1.7125   -0.8181    0.2340 C   0  0  0  0  0  0  0  0  0  0  0  0
    2.0434    0.5268    0.0325 C   0  0  0  0  0  0  0  0  0  0  0  0
    3.3857    0.9219   -0.0058 C   0  0  0  0  0  0  0  0  0  0  0  0
    4.4131   -0.0173    0.1135 C   0  0  0  0  0  0  0  0  0  0  0  0
    5.7446    0.4019    0.1951 N   0  0  0  0  0  0  0  0  0  0  0  0
    4.0772   -1.3478    0.3736 C   0  0  0  0  0  0  0  0  0  0  0  0
    2.7388   -1.7529    0.4129 C   0  0  0  0  0  0  0  0  0  0  0  0
  1  2  1  0
  2  3  1  0
  3  4  1  0
  4  5  1  0
  5  6  1  0
  6  7  2  0
  6  8  1  0
  8  9  2  0
  9 10  1  0
 10 11  2  0
 11 12  1  0
 11 13  1  0
 13 14  2  0
 14  8  1  0
M  END
>  <target>  (164) 
-3.082

$$$$

     RDKit          3D

 19 21  0  0  0  0  0  0  0  0999 V2000
   -0.0058    0.9252    1.5392 O   0  0  0  0  0  0  0  0  0  0  0  0
   -0.9995    0.5201    0.6855 C   0  0  0  0  0  0  0  0  0  0  0  0
   -1.9180    1.5076    0.3038 C   0  0  0  0  0  0  0  0  0  0  0  0
   -3.0160    1.1839   -0.4946 C   0  0  0  0  0  0  0  0  0  0  0  0
   -4.0108    2.2347   -0.8866 C   0  0  0  0  0  0  0  0  0  0  0  0
   -3.2021   -0.1489   -0.8644 C   0  0  0  0  0  0  0  0  0  0  0  0
   -2.2903   -1.1346   -0.4633 C   0  0  0  0  0  0  0  0  0  0  0  0
   -1.1618   -0.8190    0.3122 C   0  0  0  0  0  0  0  0  0  0  0  0
   -0.2602   -1.8470    0.7374 N   0  0  0  0  0  0  0  0  0  0  0  0
   -0.7698   -3.2133    0.8195 C   0  0  0  0  0  0  0  0  0  0  0  0
    1.1117   -1.6835    0.9843 C   0  0  0  0  0  0  0  0  0  0  0  0
    1.8321   -2.6192    1.3447 O   0  0  0  0  0  0  0  0  0  0  0  0
    1.8019   -0.4100    0.7175 C   0  0  0  0  0  0  0  0  0  0  0  0
    3.1146   -0.4358    0.2245 C   0  0  0  0  0  0  0  0  0  0  0  0
    3.8236    0.7496    0.0387 C   0  0  0  0  0  0  0  0  0  0  0  0
    5.0793    0.7372   -0.5761 N   0  0  0  0  0  0  0  0  0  0  0  0
    3.1310    1.9336    0.2842 C   0  0  0  0  0  0  0  0  0  0  0  0
    1.8735    2.0021    0.7800 N   0  0  0  0  0  0  0  0  0  0  0  0
    1.2397    0.8212    0.9823 C   0  0  0  0  0  0  0  0  0  0  0  0
  1  2  1  0
  2  3  2  0
  3  4  1  0
  4  5  1  0
  4  6  2  0
  6  7  1  0
  7  8  2  0
  8  9  1  0
  9 10  1  0
  9 11  1  0
 11 12  2  0
 11 13  1  0
 13 14  2  0
 14 15  1  0
 15 16  1  0
 15 17  2  0
 17 18  1  0
 18 19  2  0
  8  2  1  0
 19  1  1  0
 19 13  1  0
M  END
>  <target>  (165) 
-3.043

$$$$

     RDKit          3D

 11 10  0  0  0  0  0  0  0  0999 V2000
    2.5773    0.9288    1.7669 C   0  0  0  0  0  0  0  0  0  0  0  0
    2.1022   -0.0483    0.7234 C   0  0  0  0  0  0  0  0  0  0  0  0
    3.0756   -0.2782   -0.3992 C   0  0  0  0  0  0  0  0  0  0  0  0
    0.8904   -0.6280    0.8272 C   0  0  0  0  0  0  0  0  0  0  0  0
    0.2708   -1.6368   -0.1034 C   0  0  0  0  0  0  0  0  0  0  0  0
   -0.7018   -1.0114   -1.1134 C   0  0  0  0  0  0  0  0  0  0  0  0
   -1.9374   -0.3884   -0.4914 C   0  0  0  0  0  0  0  0  0  0  0  0
   -3.0048   -1.3667   -0.0705 C   0  0  0  0  0  0  0  0  0  0  0  0
   -2.1278    0.9369   -0.3290 C   0  0  0  0  0  0  0  0  0  0  0  0
   -1.1888    2.0523   -0.6600 C   0  0  0  0  0  0  0  0  0  0  0  0
   -1.7915    2.8501   -1.6673 O   0  0  0  0  0  0  0  0  0  0  0  0
  1  2  1  0
  2  3  1  0
  2  4  2  3
  4  5  1  0
  5  6  1  0
  6  7  1  0
  7  8  1  0
  7  9  2  0
  9 10  1  0
 10 11  1  0
M  END
>  <target>  (166) 
-2.46

$$$$

     RDKit          3D

 14 15  0  0  0  0  0  0  0  0999 V2000
    5.1903   -0.0675    0.6195 Cl  0  0  0  0  0  0  0  0  0  0  0  0
    3.4820   -0.0411    0.4178 C   0  0  0  0  0  0  0  0  0  0  0  0
    2.6526   -0.3224    1.5005 C   0  0  0  0  0  0  0  0  0  0  0  0
    1.2648   -0.3018    1.3352 C   0  0  0  0  0  0  0  0  0  0  0  0
    0.6944    0.0024    0.0884 C   0  0  0  0  0  0  0  0  0  0  0  0
    1.5486    0.2803   -0.9911 C   0  0  0  0  0  0  0  0  0  0  0  0
    2.9367    0.2601   -0.8278 C   0  0  0  0  0  0  0  0  0  0  0  0
   -0.7645    0.0161   -0.0885 C   0  0  0  0  0  0  0  0  0  0  0  0
   -1.3850   -1.0756   -0.7246 C   0  0  0  0  0  0  0  0  0  0  0  0
   -2.7687   -1.1114   -0.9142 C   0  0  0  0  0  0  0  0  0  0  0  0
   -3.5597   -0.0550   -0.4721 C   0  0  0  0  0  0  0  0  0  0  0  0
   -2.9673    1.0380    0.1587 C   0  0  0  0  0  0  0  0  0  0  0  0
   -1.5812    1.0758    0.3498 C   0  0  0  0  0  0  0  0  0  0  0  0
   -0.9225    2.4753    1.1272 Cl  0  0  0  0  0  0  0  0  0  0  0  0
  1  2  1  0
  2  3  2  0
  3  4  1  0
  4  5  2  0
  5  6  1  0
  6  7  2  0
  5  8  1  0
  8  9  2  0
  9 10  1  0
 10 11  2  0
 11 12  1  0
 12 13  2  0
 13 14  1  0
  7  2  1  0
 13  8  1  0
M  END
>  <target>  (167) 
-5.28

$$$$

     RDKit          3D

 30 32  0  0  0  0  0  0  0  0999 V2000
   -0.9902    1.3894   -2.2116 O   0  0  0  0  0  0  0  0  0  0  0  0
   -1.7628    1.1696   -1.2940 C   0  0  0  0  0  0  0  0  0  0  0  0
   -1.4930    1.1824    0.0316 N   0  0  0  0  0  0  0  0  0  0  0  0
   -0.1940    1.4231    0.5932 C   0  0  0  0  0  0  0  0  0  0  0  0
    0.4781    0.1662    0.6796 O   0  0  0  0  0  0  0  0  0  0  0  0
    1.7359    0.2688    1.1864 C   0  0  0  0  0  0  0  0  0  0  0  0
    2.2580    1.3110    1.5542 O   0  0  0  0  0  0  0  0  0  0  0  0
    2.3661   -1.1034    1.2547 C   0  0  0  0  0  0  0  0  0  0  0  0
    3.8805   -1.0582    1.4566 C   0  0  0  0  0  0  0  0  0  0  0  0
    4.6239   -0.5907    0.2014 C   0  0  0  0  0  0  0  0  0  0  0  0
    6.1375   -0.5808    0.4253 C   0  0  0  0  0  0  0  0  0  0  0  0
    6.8822   -0.1167   -0.8276 C   0  0  0  0  0  0  0  0  0  0  0  0
    8.3941   -0.1067   -0.6038 C   0  0  0  0  0  0  0  0  0  0  0  0
    9.1382    0.3542   -1.8470 C   0  0  0  0  0  0  0  0  0  0  0  0
   -2.5768    0.7548    0.7452 C   0  0  0  0  0  0  0  0  0  0  0  0
   -2.5996    0.6034    1.9628 O   0  0  0  0  0  0  0  0  0  0  0  0
   -3.7456    0.4532   -0.2460 C   0  0  0  0  0  0  0  0  0  0  0  0
   -3.0804    0.8414   -1.4777 N   0  0  0  0  0  0  0  0  0  0  0  0
   -4.1120   -1.0360   -0.3584 C   0  0  0  0  0  0  0  0  0  0  0  0
   -5.1498   -1.4315   -1.2291 C   0  0  0  0  0  0  0  0  0  0  0  0
   -5.4966   -2.7758   -1.3785 C   0  0  0  0  0  0  0  0  0  0  0  0
   -4.8113   -3.7542   -0.6659 C   0  0  0  0  0  0  0  0  0  0  0  0
   -3.7814   -3.3891    0.1959 C   0  0  0  0  0  0  0  0  0  0  0  0
   -3.4323   -2.0440    0.3481 C   0  0  0  0  0  0  0  0  0  0  0  0
   -4.9501    1.3478    0.0811 C   0  0  0  0  0  0  0  0  0  0  0  0
   -5.3651    2.3973   -0.7597 C   0  0  0  0  0  0  0  0  0  0  0  0
   -6.4727    3.1849   -0.4326 C   0  0  0  0  0  0  0  0  0  0  0  0
   -7.1824    2.9426    0.7402 C   0  0  0  0  0  0  0  0  0  0  0  0
   -6.7868    1.9138    1.5894 C   0  0  0  0  0  0  0  0  0  0  0  0
   -5.6821    1.1244    1.2640 C   0  0  0  0  0  0  0  0  0  0  0  0
  1  2  2  0
  2  3  1  0
  3  4  1  0
  4  5  1  0
  5  6  1  0
  6  7  2  0
  6  8  1  0
  8  9  1  0
  9 10  1  0
 10 11  1  0
 11 12  1  0
 12 13  1  0
 13 14  1  0
  3 15  1  0
 15 16  2  0
 15 17  1  0
 17 18  1  0
 17 19  1  0
 19 20  2  0
 20 21  1  0
 21 22  2  0
 22 23  1  0
 23 24  2  0
 17 25  1  0
 25 26  2  0
 26 27  1  0
 27 28  2  0
 28 29  1  0
 29 30  2  0
 18  2  1  0
 24 19  1  0
 30 25  1  0
M  END
>  <target>  (168) 
-6.523

$$$$

     RDKit          3D

  5  4  0  0  0  0  0  0  0  0999 V2000
   -1.1030   -0.2659   -0.0731 C   0  0  0  0  0  0  0  0  0  0  0  0
    0.1262    0.6182   -0.0781 C   0  0  0  0  0  0  0  0  0  0  0  0
    1.3290   -0.2380    0.1702 N   0  0  0  0  0  0  0  0  0  0  0  0
    1.8897   -0.7223   -0.8206 O   0  0  0  0  0  0  0  0  0  0  0  0
    1.6690   -0.4031    1.3483 O   0  0  0  0  0  0  0  0  0  0  0  0
  1  2  1  0
  2  3  1  0
  3  4  1  0
  3  5  2  0
M  CHG  2   3   1   4  -1
M  END
>  <target>  (169) 
-0.22

$$$$

     RDKit          3D

 23 23  0  0  0  0  0  0  0  0999 V2000
   -1.9105   -2.9685   -0.6990 C   0  0  0  0  0  0  0  0  0  0  0  0
   -0.9696   -1.9245   -1.2864 C   0  0  0  0  0  0  0  0  0  0  0  0
   -0.8987   -0.7398   -0.4056 N   0  0  0  0  0  0  0  0  0  0  0  0
   -2.0178    0.2150   -0.5478 C   0  0  0  0  0  0  0  0  0  0  0  0
   -2.1756    1.0073    0.7271 C   0  0  0  0  0  0  0  0  0  0  0  0
   -2.8543    0.2962    1.8652 C   0  0  0  0  0  0  0  0  0  0  0  0
   -1.7796    2.2879    0.8331 C   0  0  0  0  0  0  0  0  0  0  0  0
    0.3970   -0.2026   -0.2792 C   0  0  0  0  0  0  0  0  0  0  0  0
    1.1400   -0.4334    0.8994 C   0  0  0  0  0  0  0  0  0  0  0  0
    2.4164    0.1138    1.1443 C   0  0  0  0  0  0  0  0  0  0  0  0
    3.0298    0.9210    0.1819 C   0  0  0  0  0  0  0  0  0  0  0  0
    2.3398    1.1622   -1.0119 C   0  0  0  0  0  0  0  0  0  0  0  0
    1.0616    0.6004   -1.2279 C   0  0  0  0  0  0  0  0  0  0  0  0
    0.4740    0.8856   -2.5201 N   0  0  0  0  0  0  0  0  0  0  0  0
    0.4432   -0.0360   -3.3451 O   0  0  0  0  0  0  0  0  0  0  0  0
    0.0942    2.0479   -2.7153 O   0  0  0  0  0  0  0  0  0  0  0  0
    4.3848    1.5406    0.4340 C   0  0  0  0  0  0  0  0  0  0  0  0
    5.1545    0.8038    1.2789 F   0  0  0  0  0  0  0  0  0  0  0  0
    5.1125    1.6899   -0.7055 F   0  0  0  0  0  0  0  0  0  0  0  0
    4.2862    2.7776    0.9873 F   0  0  0  0  0  0  0  0  0  0  0  0
    0.6036   -1.2842    1.9451 N   0  0  0  0  0  0  0  0  0  0  0  0
    0.2871   -0.7322    3.0084 O   0  0  0  0  0  0  0  0  0  0  0  0
    0.5981   -2.5045    1.7319 O   0  0  0  0  0  0  0  0  0  0  0  0
  1  2  1  0
  2  3  1  0
  3  4  1  0
  4  5  1  0
  5  6  1  0
  5  7  2  0
  3  8  1  0
  8  9  2  0
  9 10  1  0
 10 11  2  0
 11 12  1  0
 12 13  2  0
 13 14  1  0
 14 15  1  0
 14 16  2  0
 11 17  1  0
 17 18  1  0
 17 19  1  0
 17 20  1  0
  9 21  1  0
 21 22  1  0
 21 23  2  0
 13  8  1  0
M  CHG  4  14   1  15  -1  21   1  22  -1
M  END
>  <target>  (170) 
-6.124

$$$$

     RDKit          3D

 10 10  0  0  0  0  0  0  0  0999 V2000
    3.0798    0.5535    0.0355 Cl  0  0  0  0  0  0  0  0  0  0  0  0
    1.3773    0.2456    0.0159 C   0  0  0  0  0  0  0  0  0  0  0  0
    0.9764   -1.0928   -0.0098 C   0  0  0  0  0  0  0  0  0  0  0  0
   -0.3787   -1.4155   -0.0267 C   0  0  0  0  0  0  0  0  0  0  0  0
   -1.3401   -0.4015   -0.0181 C   0  0  0  0  0  0  0  0  0  0  0  0
   -2.9987   -0.8940   -0.0405 Cl  0  0  0  0  0  0  0  0  0  0  0  0
   -0.9497    0.9481    0.0076 C   0  0  0  0  0  0  0  0  0  0  0  0
   -2.1579    2.1989    0.0180 Cl  0  0  0  0  0  0  0  0  0  0  0  0
    0.4201    1.2743    0.0247 C   0  0  0  0  0  0  0  0  0  0  0  0
    0.9344    2.9353    0.0567 Cl  0  0  0  0  0  0  0  0  0  0  0  0
  1  2  1  0
  2  3  2  0
  3  4  1  0
  4  5  2  0
  5  6  1  0
  5  7  1  0
  7  8  1  0
  7  9  2  0
  9 10  1  0
  9  2  1  0
M  END
>  <target>  (171) 
-4.57

$$$$

     RDKit          3D

 15 14  0  0  0  0  0  0  0  0999 V2000
   -2.0906    3.1088   -0.3636 C   0  0  0  0  0  0  0  0  0  0  0  0
   -1.0851    2.0726    0.1191 C   0  0  0  0  0  0  0  0  0  0  0  0
   -0.8464    0.9954   -0.9449 C   0  0  0  0  0  0  0  0  0  0  0  0
    0.1683   -0.1207   -0.5597 C   0  0  0  0  0  0  0  0  0  0  0  0
    0.2015   -1.1367   -1.7258 C   0  0  0  0  0  0  0  0  0  0  0  0
    1.5820    0.4782   -0.3668 C   0  0  0  0  0  0  0  0  0  0  0  0
    2.5307   -0.5663   -0.1002 O   0  0  0  0  0  0  0  0  0  0  0  0
    3.8032   -0.1352    0.0459 C   0  0  0  0  0  0  0  0  0  0  0  0
    4.6160   -1.1831    0.3007 N   0  0  0  0  0  0  0  0  0  0  0  0
    4.1900    1.0192   -0.0275 O   0  0  0  0  0  0  0  0  0  0  0  0
   -0.2474   -0.8659    0.7317 C   0  0  0  0  0  0  0  0  0  0  0  0
   -1.5988   -1.3369    0.6149 O   0  0  0  0  0  0  0  0  0  0  0  0
   -2.0539   -1.9901    1.7062 C   0  0  0  0  0  0  0  0  0  0  0  0
   -3.3282   -2.3888    1.5029 N   0  0  0  0  0  0  0  0  0  0  0  0
   -1.4354   -2.2039    2.7355 O   0  0  0  0  0  0  0  0  0  0  0  0
  1  2  1  0
  2  3  1  0
  3  4  1  0
  4  5  1  0
  4  6  1  0
  6  7  1  0
  7  8  1  0
  8  9  1  0
  8 10  2  0
  4 11  1  0
 11 12  1  0
 12 13  1  0
 13 14  1  0
 13 15  2  0
M  END
>  <target>  (172) 
-1.807

$$$$

     RDKit          3D

 23 26  0  0  0  0  0  0  0  0999 V2000
    5.9773    0.9873   -0.2264 C   0  0  0  0  0  0  0  0  0  0  0  0
    4.7710    0.3464    0.4159 C   0  0  0  0  0  0  0  0  0  0  0  0
    4.7282    0.1972    1.6363 O   0  0  0  0  0  0  0  0  0  0  0  0
    3.6749   -0.1624   -0.5210 C   0  0  0  0  0  0  0  0  0  0  0  0
    3.2513    0.8794   -1.5620 C   0  0  0  0  0  0  0  0  0  0  0  0
    1.8023    0.5567   -1.9264 C   0  0  0  0  0  0  0  0  0  0  0  0
    1.4281   -0.7028   -1.1252 C   0  0  0  0  0  0  0  0  0  0  0  0
   -0.0781   -0.8751   -0.8185 C   0  0  0  0  0  0  0  0  0  0  0  0
   -0.9159   -0.8072   -2.1068 C   0  0  0  0  0  0  0  0  0  0  0  0
   -2.3879   -0.7122   -1.8691 C   0  0  0  0  0  0  0  0  0  0  0  0
   -2.9574   -0.4270   -0.6848 C   0  0  0  0  0  0  0  0  0  0  0  0
   -4.4711   -0.3581   -0.5689 C   0  0  0  0  0  0  0  0  0  0  0  0
   -4.9647    0.8951    0.1605 C   0  0  0  0  0  0  0  0  0  0  0  0
   -4.8027    2.0350   -0.6848 O   0  0  0  0  0  0  0  0  0  0  0  0
   -4.2269    1.1082    1.4791 C   0  0  0  0  0  0  0  0  0  0  0  0
   -2.7081    1.1184    1.2854 C   0  0  0  0  0  0  0  0  0  0  0  0
   -2.1413   -0.1514    0.5833 C   0  0  0  0  0  0  0  0  0  0  0  0
   -2.3017   -1.3725    1.5223 C   0  0  0  0  0  0  0  0  0  0  0  0
   -0.6166    0.1171    0.2388 C   0  0  0  0  0  0  0  0  0  0  0  0
    0.2954    0.1376    1.4810 C   0  0  0  0  0  0  0  0  0  0  0  0
    1.7616    0.3957    1.1365 C   0  0  0  0  0  0  0  0  0  0  0  0
    2.3389   -0.6238    0.1253 C   0  0  0  0  0  0  0  0  0  0  0  0
    2.5040   -2.0062    0.7796 C   0  0  0  0  0  0  0  0  0  0  0  0
  1  2  1  0
  2  3  2  0
  2  4  1  0
  4  5  1  0
  5  6  1  0
  6  7  1  0
  7  8  1  0
  8  9  1  0
  9 10  1  0
 10 11  2  0
 11 12  1  0
 12 13  1  0
 13 14  1  0
 13 15  1  0
 15 16  1  0
 16 17  1  0
 17 18  1  0
 17 19  1  0
 19 20  1  0
 20 21  1  0
 21 22  1  0
 22 23  1  0
 17 11  1  0
 19  8  1  0
 22  4  1  0
 22  7  1  0
M  END
>  <target>  (173) 
-4.65

$$$$

     RDKit          3D

  2  1  0  0  0  0  0  0  0  0999 V2000
   -0.1862   -0.0018    0.0015 C   0  0  0  0  0  0  0  0  0  0  0  0
    1.9258    0.0183   -0.0154 I   0  0  0  0  0  0  0  0  0  0  0  0
  1  2  1  0
M  END
>  <target>  (174) 
-1.0

$$$$

     RDKit          3D

 20 21  0  0  0  0  0  0  0  0999 V2000
   -4.2625   -2.2497    0.5530 C   0  0  0  0  0  0  0  0  0  0  0  0
   -3.3358   -1.2635   -0.1566 C   0  0  0  0  0  0  0  0  0  0  0  0
   -3.8933    0.1656   -0.0592 C   0  0  0  0  0  0  0  0  0  0  0  0
   -2.9714    1.1840   -0.7373 C   0  0  0  0  0  0  0  0  0  0  0  0
   -3.5102    2.6011   -0.5720 C   0  0  0  0  0  0  0  0  0  0  0  0
   -1.5699    1.0367   -0.1557 C   0  0  0  0  0  0  0  0  0  0  0  0
   -0.9591    1.9773    0.3517 O   0  0  0  0  0  0  0  0  0  0  0  0
   -0.9610   -0.3583   -0.2695 C   0  0  0  0  0  0  0  0  0  0  0  0
   -1.9174   -1.3340    0.4347 C   0  0  0  0  0  0  0  0  0  0  0  0
    0.4622   -0.4497    0.3179 C   0  0  0  0  0  0  0  0  0  0  0  0
    0.4953    0.0250    1.6607 O   0  0  0  0  0  0  0  0  0  0  0  0
    1.5186    0.2833   -0.5289 C   0  0  0  0  0  0  0  0  0  0  0  0
    2.9373    0.2788    0.0800 C   0  0  0  0  0  0  0  0  0  0  0  0
    3.8862    1.0892   -0.8071 C   0  0  0  0  0  0  0  0  0  0  0  0
    5.2879    1.1050   -0.2477 C   0  0  0  0  0  0  0  0  0  0  0  0
    6.0937    1.9900   -0.5225 O   0  0  0  0  0  0  0  0  0  0  0  0
    5.6499    0.0326    0.5244 N   0  0  0  0  0  0  0  0  0  0  0  0
    4.9268   -1.1072    0.7587 C   0  0  0  0  0  0  0  0  0  0  0  0
    5.4423   -2.0814    1.3011 O   0  0  0  0  0  0  0  0  0  0  0  0
    3.5064   -1.1317    0.2428 C   0  0  0  0  0  0  0  0  0  0  0  0
  1  2  1  0
  2  3  1  0
  3  4  1  0
  4  5  1  0
  4  6  1  0
  6  7  2  0
  6  8  1  0
  8  9  1  0
  8 10  1  0
 10 11  1  0
 10 12  1  0
 12 13  1  0
 13 14  1  0
 14 15  1  0
 15 16  2  0
 15 17  1  0
 17 18  1  0
 18 19  2  0
 18 20  1  0
  9  2  1  0
 20 13  1  0
M  END
>  <target>  (175) 
-1.13

$$$$

     RDKit          3D

 29 31  0  0  0  0  0  0  0  0999 V2000
   -1.6627    1.3284    3.0005 O   0  0  0  0  0  0  0  0  0  0  0  0
   -2.0498    1.1127    1.8645 C   0  0  0  0  0  0  0  0  0  0  0  0
   -1.4129    1.4025    0.7066 N   0  0  0  0  0  0  0  0  0  0  0  0
   -0.1021    1.9810    0.6206 C   0  0  0  0  0  0  0  0  0  0  0  0
    0.8374    0.9085    0.5568 O   0  0  0  0  0  0  0  0  0  0  0  0
    2.1234    1.3349    0.4427 C   0  0  0  0  0  0  0  0  0  0  0  0
    2.4700    2.5068    0.4040 O   0  0  0  0  0  0  0  0  0  0  0  0
    3.0457    0.1408    0.3736 C   0  0  0  0  0  0  0  0  0  0  0  0
    4.5093    0.5570    0.2397 C   0  0  0  0  0  0  0  0  0  0  0  0
    5.4305   -0.6615    0.1703 C   0  0  0  0  0  0  0  0  0  0  0  0
    6.8959   -0.2443    0.0363 C   0  0  0  0  0  0  0  0  0  0  0  0
    7.8166   -1.4624   -0.0332 C   0  0  0  0  0  0  0  0  0  0  0  0
    9.2744   -1.0519   -0.1664 C   0  0  0  0  0  0  0  0  0  0  0  0
   -2.1651    1.0175   -0.3673 C   0  0  0  0  0  0  0  0  0  0  0  0
   -1.8445    1.1737   -1.5414 O   0  0  0  0  0  0  0  0  0  0  0  0
   -3.4806    0.3544    0.1506 C   0  0  0  0  0  0  0  0  0  0  0  0
   -3.2497    0.5209    1.5743 N   0  0  0  0  0  0  0  0  0  0  0  0
   -4.7720    1.1033   -0.2079 C   0  0  0  0  0  0  0  0  0  0  0  0
   -4.7869    2.2746   -0.9846 C   0  0  0  0  0  0  0  0  0  0  0  0
   -5.9877    2.9300   -1.2736 C   0  0  0  0  0  0  0  0  0  0  0  0
   -7.1946    2.4308   -0.7923 C   0  0  0  0  0  0  0  0  0  0  0  0
   -7.2057    1.2734   -0.0211 C   0  0  0  0  0  0  0  0  0  0  0  0
   -6.0081    0.6170    0.2694 C   0  0  0  0  0  0  0  0  0  0  0  0
   -3.4960   -1.1230   -0.2739 C   0  0  0  0  0  0  0  0  0  0  0  0
   -3.2075   -2.1702    0.6209 C   0  0  0  0  0  0  0  0  0  0  0  0
   -3.2099   -3.5009    0.1942 C   0  0  0  0  0  0  0  0  0  0  0  0
   -3.4969   -3.8108   -1.1321 C   0  0  0  0  0  0  0  0  0  0  0  0
   -3.7780   -2.7913   -2.0363 C   0  0  0  0  0  0  0  0  0  0  0  0
   -3.7741   -1.4607   -1.6133 C   0  0  0  0  0  0  0  0  0  0  0  0
  1  2  2  0
  2  3  1  0
  3  4  1  0
  4  5  1  0
  5  6  1  0
  6  7  2  0
  6  8  1  0
  8  9  1  0
  9 10  1  0
 10 11  1  0
 11 12  1  0
 12 13  1  0
  3 14  1  0
 14 15  2  0
 14 16  1  0
 16 17  1  0
 16 18  1  0
 18 19  2  0
 19 20  1  0
 20 21  2  0
 21 22  1  0
 22 23  2  0
 16 24  1  0
 24 25  2  0
 25 26  1  0
 26 27  2  0
 27 28  1  0
 28 29  2  0
 17  2  1  0
 23 18  1  0
 29 24  1  0
M  END
>  <target>  (176) 
-6.301

$$$$

     RDKit          3D

 10 10  0  0  0  0  0  0  0  0999 V2000
    2.7648   -1.0437   -0.1944 C   0  0  0  0  0  0  0  0  0  0  0  0
    1.5542   -0.1617   -0.0865 C   0  0  0  0  0  0  0  0  0  0  0  0
    1.5758    1.1119   -0.5114 C   0  0  0  0  0  0  0  0  0  0  0  0
    0.3941    1.9928   -0.3499 C   0  0  0  0  0  0  0  0  0  0  0  0
    0.4491    3.1519   -0.7551 O   0  0  0  0  0  0  0  0  0  0  0  0
   -0.8175    1.4523    0.3785 C   0  0  0  0  0  0  0  0  0  0  0  0
   -0.9906   -0.0656    0.1933 C   0  0  0  0  0  0  0  0  0  0  0  0
   -1.4191   -0.3802   -1.2562 C   0  0  0  0  0  0  0  0  0  0  0  0
   -2.0995   -0.5670    1.1361 C   0  0  0  0  0  0  0  0  0  0  0  0
    0.3314   -0.7913    0.5362 C   0  0  0  0  0  0  0  0  0  0  0  0
  1  2  1  0
  2  3  2  0
  3  4  1  0
  4  5  2  0
  4  6  1  0
  6  7  1  0
  7  8  1  0
  7  9  1  0
  7 10  1  0
 10  2  1  0
M  END
>  <target>  (177) 
-1.06

$$$$

     RDKit          3D

 15 15  0  0  0  0  0  0  0  0999 V2000
    1.8071    0.2750   -1.8148 O   0  0  0  0  0  0  0  0  0  0  0  0
    1.4553    0.5366   -0.6674 C   0  0  0  0  0  0  0  0  0  0  0  0
    1.9036    1.6765   -0.0585 N   0  0  0  0  0  0  0  0  0  0  0  0
    2.1069    1.7650    1.2825 C   0  0  0  0  0  0  0  0  0  0  0  0
    2.9366    2.5354    1.7540 O   0  0  0  0  0  0  0  0  0  0  0  0
    1.4217    0.8934    2.0690 N   0  0  0  0  0  0  0  0  0  0  0  0
    0.9346   -0.2993    1.6091 C   0  0  0  0  0  0  0  0  0  0  0  0
    0.8451   -1.2595    2.3698 O   0  0  0  0  0  0  0  0  0  0  0  0
    0.4753   -0.3100    0.1487 C   0  0  0  0  0  0  0  0  0  0  0  0
    0.4179   -1.7620   -0.3974 C   0  0  0  0  0  0  0  0  0  0  0  0
    1.7451   -2.5226   -0.3686 C   0  0  0  0  0  0  0  0  0  0  0  0
   -0.9425    0.4019    0.0871 C   0  0  0  0  0  0  0  0  0  0  0  0
   -1.9975   -0.2985    0.9645 C   0  0  0  0  0  0  0  0  0  0  0  0
   -1.4806    0.5545   -1.3603 C   0  0  0  0  0  0  0  0  0  0  0  0
   -2.7176    1.4402   -1.4639 C   0  0  0  0  0  0  0  0  0  0  0  0
  1  2  2  0
  2  3  1  0
  3  4  1  0
  4  5  2  0
  4  6  1  0
  6  7  1  0
  7  8  2  0
  7  9  1  0
  9 10  1  0
 10 11  1  0
  9 12  1  0
 12 13  1  0
 12 14  1  0
 14 15  1  0
  9  2  1  0
M  END
>  <target>  (178) 
-2.39

$$$$

     RDKit          3D

 10  9  0  0  0  0  0  0  0  0999 V2000
   -4.7317   -0.7673    0.2664 C   0  0  0  0  0  0  0  0  0  0  0  0
   -3.5963    0.2040    0.5474 C   0  0  0  0  0  0  0  0  0  0  0  0
   -2.2938   -0.2524   -0.1084 C   0  0  0  0  0  0  0  0  0  0  0  0
   -1.1561    0.7256    0.1759 C   0  0  0  0  0  0  0  0  0  0  0  0
    0.1569    0.2967   -0.4606 C   0  0  0  0  0  0  0  0  0  0  0  0
    0.2516   -0.7198   -1.1465 O   0  0  0  0  0  0  0  0  0  0  0  0
    1.3357    1.2293   -0.2213 C   0  0  0  0  0  0  0  0  0  0  0  0
    2.6795    0.6552   -0.6673 C   0  0  0  0  0  0  0  0  0  0  0  0
    3.1841   -0.4452    0.2695 C   0  0  0  0  0  0  0  0  0  0  0  0
    4.5333   -0.9824   -0.1820 C   0  0  0  0  0  0  0  0  0  0  0  0
  1  2  1  0
  2  3  1  0
  3  4  1  0
  4  5  1  0
  5  6  2  0
  5  7  1  0
  7  8  1  0
  8  9  1  0
  9 10  1  0
M  END
>  <target>  (179) 
-2.58

$$$$

     RDKit          3D

 16 17  0  0  0  0  0  0  0  0999 V2000
    0.1767    2.4846   -1.4422 C   0  0  0  0  0  0  0  0  0  0  0  0
   -0.3786    2.0837   -0.0792 C   0  0  0  0  0  0  0  0  0  0  0  0
   -0.5982    0.5545    0.1468 C   0  0  0  0  0  0  0  0  0  0  0  0
   -1.6072    0.0089   -0.8963 C   0  0  0  0  0  0  0  0  0  0  0  0
   -2.0113   -1.4343   -0.6156 C   0  0  0  0  0  0  0  0  0  0  0  0
   -2.5234   -1.5947    0.7900 C   0  0  0  0  0  0  0  0  0  0  0  0
   -3.4176   -2.3852    1.0780 O   0  0  0  0  0  0  0  0  0  0  0  0
   -1.9320   -0.8177    1.7478 N   0  0  0  0  0  0  0  0  0  0  0  0
   -1.2988    0.3793    1.5199 C   0  0  0  0  0  0  0  0  0  0  0  0
   -1.2996    1.2381    2.4017 O   0  0  0  0  0  0  0  0  0  0  0  0
    0.7766   -0.1469    0.1610 C   0  0  0  0  0  0  0  0  0  0  0  0
    1.5973   -0.0701    1.3042 C   0  0  0  0  0  0  0  0  0  0  0  0
    2.8524   -0.6829    1.3415 C   0  0  0  0  0  0  0  0  0  0  0  0
    3.3239   -1.3743    0.2317 C   0  0  0  0  0  0  0  0  0  0  0  0
    2.5450   -1.4428   -0.9183 C   0  0  0  0  0  0  0  0  0  0  0  0
    1.2888   -0.8295   -0.9564 C   0  0  0  0  0  0  0  0  0  0  0  0
  1  2  1  0
  2  3  1  0
  3  4  1  0
  4  5  1  0
  5  6  1  0
  6  7  2  0
  6  8  1  0
  8  9  1  0
  9 10  2  0
  3 11  1  0
 11 12  2  0
 12 13  1  0
 13 14  2  0
 14 15  1  0
 15 16  2  0
  9  3  1  0
 16 11  1  0
M  END
>  <target>  (180) 
-2.3369999999999997

$$$$

     RDKit          3D

  6  5  0  0  0  0  0  0  0  0999 V2000
    2.5579   -0.0283   -0.2915 C   0  0  0  0  0  0  0  0  0  0  0  0
    1.1496   -0.0792   -0.8675 C   0  0  0  0  0  0  0  0  0  0  0  0
    0.0394    0.1722    0.1744 C   0  0  0  0  0  0  0  0  0  0  0  0
    0.0201   -0.9174    1.2508 C   0  0  0  0  0  0  0  0  0  0  0  0
   -1.3181    0.2765   -0.5518 C   0  0  0  0  0  0  0  0  0  0  0  0
   -2.4693    0.6964    0.3517 C   0  0  0  0  0  0  0  0  0  0  0  0
  1  2  1  0
  2  3  1  0
  3  4  1  0
  3  5  1  0
  5  6  1  0
M  END
>  <target>  (181) 
-3.68

$$$$

     RDKit          3D

 28 30  0  0  0  0  0  0  0  0999 V2000
    7.4942   -0.1731    3.6886 C   0  0  0  0  0  0  0  0  0  0  0  0
    6.5222   -0.3661    2.5383 C   0  0  0  0  0  0  0  0  0  0  0  0
    5.8183    0.8596    2.3471 O   0  0  0  0  0  0  0  0  0  0  0  0
    4.8981    0.8963    1.3373 C   0  0  0  0  0  0  0  0  0  0  0  0
    4.5615   -0.1555    0.4911 C   0  0  0  0  0  0  0  0  0  0  0  0
    3.5933    0.0192   -0.5092 C   0  0  0  0  0  0  0  0  0  0  0  0
    2.9397    1.2486   -0.6939 C   0  0  0  0  0  0  0  0  0  0  0  0
    3.2884    2.2952    0.1790 C   0  0  0  0  0  0  0  0  0  0  0  0
    4.2542    2.1205    1.1758 C   0  0  0  0  0  0  0  0  0  0  0  0
    1.8601    1.4612   -1.7739 C   0  0  0  0  0  0  0  0  0  0  0  0
    2.1669    2.7353   -2.5970 C   0  0  0  0  0  0  0  0  0  0  0  0
    1.7730    0.2974   -2.7923 C   0  0  0  0  0  0  0  0  0  0  0  0
    0.4822    1.6028   -1.0692 C   0  0  0  0  0  0  0  0  0  0  0  0
   -0.5574    1.8213   -2.0296 O   0  0  0  0  0  0  0  0  0  0  0  0
   -1.8584    1.8275   -1.4395 C   0  0  0  0  0  0  0  0  0  0  0  0
   -2.3822    0.4288   -1.2218 C   0  0  0  0  0  0  0  0  0  0  0  0
   -2.2290   -0.5566   -2.2090 C   0  0  0  0  0  0  0  0  0  0  0  0
   -2.7186   -1.8485   -2.0085 C   0  0  0  0  0  0  0  0  0  0  0  0
   -3.3842   -2.1665   -0.8257 C   0  0  0  0  0  0  0  0  0  0  0  0
   -3.5740   -1.1831    0.1472 C   0  0  0  0  0  0  0  0  0  0  0  0
   -4.1946   -1.4362    1.3498 O   0  0  0  0  0  0  0  0  0  0  0  0
   -5.3870   -2.1232    1.3154 C   0  0  0  0  0  0  0  0  0  0  0  0
   -5.5551   -3.1451    2.2503 C   0  0  0  0  0  0  0  0  0  0  0  0
   -6.7534   -3.8585    2.2933 C   0  0  0  0  0  0  0  0  0  0  0  0
   -7.7869   -3.5389    1.4120 C   0  0  0  0  0  0  0  0  0  0  0  0
   -7.6266   -2.5016    0.4924 C   0  0  0  0  0  0  0  0  0  0  0  0
   -6.4290   -1.7863    0.4475 C   0  0  0  0  0  0  0  0  0  0  0  0
   -3.0628    0.1028   -0.0406 C   0  0  0  0  0  0  0  0  0  0  0  0
  1  2  1  0
  2  3  1  0
  3  4  1  0
  4  5  2  0
  5  6  1  0
  6  7  2  0
  7  8  1  0
  8  9  2  0
  7 10  1  0
 10 11  1  0
 10 12  1  0
 10 13  1  0
 13 14  1  0
 14 15  1  0
 15 16  1  0
 16 17  2  0
 17 18  1  0
 18 19  2  0
 19 20  1  0
 20 21  1  0
 21 22  1  0
 22 23  2  0
 23 24  1  0
 24 25  2  0
 25 26  1  0
 26 27  2  0
 20 28  2  0
  9  4  1  0
 27 22  1  0
 28 16  1  0
M  END
>  <target>  (182) 
-8.6

$$$$

     RDKit          3D

 19 21  0  0  0  0  0  0  0  0999 V2000
   -1.7939    1.7782    1.1389 C   0  0  0  0  0  0  0  0  0  0  0  0
   -2.3524    0.6375    0.3330 C   0  0  0  0  0  0  0  0  0  0  0  0
   -3.7467    0.5461    0.1833 C   0  0  0  0  0  0  0  0  0  0  0  0
   -4.3243   -0.4952   -0.5441 C   0  0  0  0  0  0  0  0  0  0  0  0
   -3.5174   -1.4560   -1.1442 C   0  0  0  0  0  0  0  0  0  0  0  0
   -2.1310   -1.3730   -1.0207 C   0  0  0  0  0  0  0  0  0  0  0  0
   -1.5374   -0.3305   -0.2884 C   0  0  0  0  0  0  0  0  0  0  0  0
   -0.1130   -0.2739   -0.2102 N   0  0  0  0  0  0  0  0  0  0  0  0
    0.6200   -1.2854    0.3931 C   0  0  0  0  0  0  0  0  0  0  0  0
   -0.1020   -2.3964    1.1280 C   0  0  0  0  0  0  0  0  0  0  0  0
    1.9158   -1.3345    0.3958 N   0  0  0  0  0  0  0  0  0  0  0  0
    2.6281   -0.3018   -0.2195 C   0  0  0  0  0  0  0  0  0  0  0  0
    4.0246   -0.3434   -0.1999 C   0  0  0  0  0  0  0  0  0  0  0  0
    4.7768    0.6735   -0.7942 C   0  0  0  0  0  0  0  0  0  0  0  0
    4.1353    1.7442   -1.4150 C   0  0  0  0  0  0  0  0  0  0  0  0
    2.7423    1.7961   -1.4409 C   0  0  0  0  0  0  0  0  0  0  0  0
    1.9981    0.7720   -0.8405 C   0  0  0  0  0  0  0  0  0  0  0  0
    0.5246    0.7879   -0.8632 C   0  0  0  0  0  0  0  0  0  0  0  0
   -0.0382    1.6978   -1.4704 O   0  0  0  0  0  0  0  0  0  0  0  0
  1  2  1  0
  2  3  2  0
  3  4  1  0
  4  5  2  0
  5  6  1  0
  6  7  2  0
  7  8  1  0
  8  9  1  0
  9 10  1  0
  9 11  2  0
 11 12  1  0
 12 13  2  0
 13 14  1  0
 14 15  2  0
 15 16  1  0
 16 17  2  0
 17 18  1  0
 18 19  2  0
  7  2  1  0
 17 12  1  0
 18  8  1  0
M  END
>  <target>  (183) 
-2.925

$$$$

     RDKit          3D

  4  3  0  0  0  0  0  0  0  0999 V2000
   -1.3243    1.3430    0.0101 Cl  0  0  0  0  0  0  0  0  0  0  0  0
   -0.4212   -0.1868   -0.0029 C   0  0  0  0  0  0  0  0  0  0  0  0
    1.0172    0.0817    0.0034 C   0  0  0  0  0  0  0  0  0  0  0  0
    2.1640    0.2654    0.0082 N   0  0  0  0  0  0  0  0  0  0  0  0
  1  2  1  0
  2  3  1  0
  3  4  3  0
M  END
>  <target>  (184) 
-0.092

$$$$

     RDKit          3D

 17 17  0  0  0  0  0  0  0  0999 V2000
    2.9786    2.0095   -0.3998 C   0  0  0  0  0  0  0  0  0  0  0  0
    2.1233    1.1822   -1.3372 C   0  0  0  0  0  0  0  0  0  0  0  0
    1.1127    0.5408   -0.5751 O   0  0  0  0  0  0  0  0  0  0  0  0
    0.2779   -0.6865   -1.2289 P   0  0  0  0  0  0  0  0  0  0  0  0
   -0.5585   -0.3556   -2.9515 S   0  0  0  0  0  0  0  0  0  0  0  0
    1.4591   -2.0576   -1.1776 C   0  0  0  0  0  0  0  0  0  0  0  0
    2.1126   -2.2861    0.1727 C   0  0  0  0  0  0  0  0  0  0  0  0
   -0.7166   -1.0944   -0.0233 O   0  0  0  0  0  0  0  0  0  0  0  0
   -1.7195   -0.3371    0.5185 C   0  0  0  0  0  0  0  0  0  0  0  0
   -1.8944    1.0190    0.2406 C   0  0  0  0  0  0  0  0  0  0  0  0
   -2.9397    1.7323    0.8414 C   0  0  0  0  0  0  0  0  0  0  0  0
   -3.0906    3.4100    0.4541 Cl  0  0  0  0  0  0  0  0  0  0  0  0
   -3.8132    1.0882    1.7250 C   0  0  0  0  0  0  0  0  0  0  0  0
   -5.1198    1.9097    2.5006 Cl  0  0  0  0  0  0  0  0  0  0  0  0
   -3.6388   -0.2670    2.0094 C   0  0  0  0  0  0  0  0  0  0  0  0
   -2.5947   -0.9733    1.4099 C   0  0  0  0  0  0  0  0  0  0  0  0
   -2.4131   -2.6479    1.7971 Cl  0  0  0  0  0  0  0  0  0  0  0  0
  1  2  1  0
  2  3  1  0
  3  4  1  0
  4  5  2  0
  4  6  1  0
  6  7  1  0
  4  8  1  0
  8  9  1  0
  9 10  2  0
 10 11  1  0
 11 12  1  0
 11 13  2  0
 13 14  1  0
 13 15  1  0
 15 16  2  0
 16 17  1  0
 16  9  1  0
M  END
>  <target>  (185) 
-5.752000000000001

$$$$

     RDKit          3D

 23 26  0  0  0  0  0  0  0  0999 V2000
   -2.5090    0.4028    1.6697 C   0  0  0  0  0  0  0  0  0  0  0  0
   -2.2315    0.2690    0.1549 C   0  0  0  0  0  0  0  0  0  0  0  0
   -2.9623    1.4254   -0.5930 C   0  0  0  0  0  0  0  0  0  0  0  0
   -4.4690    1.2386   -0.6891 C   0  0  0  0  0  0  0  0  0  0  0  0
   -4.7876   -0.0852   -1.3296 C   0  0  0  0  0  0  0  0  0  0  0  0
   -5.7782   -0.2545   -2.0353 O   0  0  0  0  0  0  0  0  0  0  0  0
   -3.9098   -1.2354   -1.0186 C   0  0  0  0  0  0  0  0  0  0  0  0
   -2.7761   -1.0873   -0.3107 C   0  0  0  0  0  0  0  0  0  0  0  0
   -1.9763   -2.3058    0.0821 C   0  0  0  0  0  0  0  0  0  0  0  0
   -0.5173   -2.1671   -0.3272 C   0  0  0  0  0  0  0  0  0  0  0  0
    0.1097   -0.8901    0.2527 C   0  0  0  0  0  0  0  0  0  0  0  0
   -0.6914    0.3645   -0.1813 C   0  0  0  0  0  0  0  0  0  0  0  0
   -0.0216    1.6356    0.3767 C   0  0  0  0  0  0  0  0  0  0  0  0
    1.4468    1.7405   -0.0351 C   0  0  0  0  0  0  0  0  0  0  0  0
    2.2984    0.5032    0.3636 C   0  0  0  0  0  0  0  0  0  0  0  0
    2.5188    0.5311    1.8899 C   0  0  0  0  0  0  0  0  0  0  0  0
    1.6116   -0.8032   -0.0969 C   0  0  0  0  0  0  0  0  0  0  0  0
    1.9546   -0.9035   -1.5973 C   0  0  0  0  0  0  0  0  0  0  0  0
    3.2101   -0.0527   -1.8232 C   0  0  0  0  0  0  0  0  0  0  0  0
    3.6365    0.4585   -0.4379 C   0  0  0  0  0  0  0  0  0  0  0  0
    4.2076    1.7544   -0.5509 O   0  0  0  0  0  0  0  0  0  0  0  0
    4.6533   -0.4501    0.1375 C   0  0  0  0  0  0  0  0  0  0  0  0
    5.4890   -1.1827    0.5943 C   0  0  0  0  0  0  0  0  0  0  0  0
  1  2  1  0
  2  3  1  0
  3  4  1  0
  4  5  1  0
  5  6  2  0
  5  7  1  0
  7  8  2  0
  8  9  1  0
  9 10  1  0
 10 11  1  0
 11 12  1  0
 12 13  1  0
 13 14  1  0
 14 15  1  0
 15 16  1  0
 15 17  1  0
 17 18  1  0
 18 19  1  0
 19 20  1  0
 20 21  1  0
 20 22  1  0
 22 23  3  0
  8  2  1  0
 12  2  1  0
 17 11  1  0
 20 15  1  0
M  END
>  <target>  (186) 
-5.66

$$$$

     RDKit          3D

  6  6  0  0  0  0  0  0  0  0999 V2000
    0.6591    0.8243    0.0397 C   0  0  0  0  0  0  0  0  0  0  0  0
   -0.7264    0.7665    0.0147 C   0  0  0  0  0  0  0  0  0  0  0  0
   -1.3229   -0.4785   -0.0386 C   0  0  0  0  0  0  0  0  0  0  0  0
   -0.6124   -1.6245   -0.0669 N   0  0  0  0  0  0  0  0  0  0  0  0
    0.7475   -1.5678   -0.0423 N   0  0  0  0  0  0  0  0  0  0  0  0
    1.3587   -0.3666    0.0097 C   0  0  0  0  0  0  0  0  0  0  0  0
  1  2  2  0
  2  3  1  0
  3  4  2  0
  4  5  1  0
  5  6  2  0
  6  1  1  0
M  END
>  <target>  (187) 
1.1

$$$$

     RDKit          3D

 10 10  0  0  0  0  0  0  0  0999 V2000
    2.9865   -1.0127    0.0293 Cl  0  0  0  0  0  0  0  0  0  0  0  0
    1.3581   -0.4605    0.0133 C   0  0  0  0  0  0  0  0  0  0  0  0
    0.3168   -1.3829   -0.0085 C   0  0  0  0  0  0  0  0  0  0  0  0
   -1.0079   -0.9345   -0.0215 C   0  0  0  0  0  0  0  0  0  0  0  0
   -2.2461   -2.1433   -0.0485 Cl  0  0  0  0  0  0  0  0  0  0  0  0
   -1.2960    0.4395   -0.0127 C   0  0  0  0  0  0  0  0  0  0  0  0
   -2.9390    0.9966   -0.0289 Cl  0  0  0  0  0  0  0  0  0  0  0  0
   -0.2319    1.3549    0.0093 C   0  0  0  0  0  0  0  0  0  0  0  0
   -0.4798    3.0676    0.0217 Cl  0  0  0  0  0  0  0  0  0  0  0  0
    1.0923    0.9051    0.0223 C   0  0  0  0  0  0  0  0  0  0  0  0
  1  2  1  0
  2  3  2  0
  3  4  1  0
  4  5  1  0
  4  6  2  0
  6  7  1  0
  6  8  1  0
  8  9  1  0
  8 10  2  0
 10  2  1  0
M  END
>  <target>  (188) 
-4.63

$$$$

     RDKit          3D

 30 35  0  0  0  0  0  0  0  0999 V2000
   -3.9587    2.3532    1.4394 C   0  0  0  0  0  0  0  0  0  0  0  0
   -5.4814    2.1804    1.3168 C   0  0  0  0  0  0  0  0  0  0  0  0
   -5.9277    1.1338    2.1850 O   0  0  0  0  0  0  0  0  0  0  0  0
   -5.9351    1.8760   -0.1145 C   0  0  0  0  0  0  0  0  0  0  0  0
   -5.1217    0.7526   -0.7777 C   0  0  0  0  0  0  0  0  0  0  0  0
   -3.5863    0.9689   -0.7029 C   0  0  0  0  0  0  0  0  0  0  0  0
   -3.1867    2.1898   -1.5645 C   0  0  0  0  0  0  0  0  0  0  0  0
   -2.8515   -0.2630   -1.3117 C   0  0  0  0  0  0  0  0  0  0  0  0
   -2.6144   -1.3938   -0.3015 C   0  0  0  0  0  0  0  0  0  0  0  0
   -1.9382   -2.6090   -0.9396 C   0  0  0  0  0  0  0  0  0  0  0  0
   -0.4402   -2.4193   -1.1612 C   0  0  0  0  0  0  0  0  0  0  0  0
    0.3533   -2.0504    0.1263 C   0  0  0  0  0  0  0  0  0  0  0  0
    0.3884   -3.2887    1.0477 C   0  0  0  0  0  0  0  0  0  0  0  0
    1.8061   -1.4915   -0.1876 C   0  0  0  0  0  0  0  0  0  0  0  0
    2.5195   -2.2742   -1.3092 C   0  0  0  0  0  0  0  0  0  0  0  0
    2.7261   -1.4633    1.0724 C   0  0  0  0  0  0  0  0  0  0  0  0
    3.8699   -0.4503    1.0032 C   0  0  0  0  0  0  0  0  0  0  0  0
    4.8840   -0.9542    0.1284 O   0  0  0  0  0  0  0  0  0  0  0  0
    5.9981   -0.0738    0.0025 C   0  0  0  0  0  0  0  0  0  0  0  0
    5.5681    1.2790   -0.5648 C   0  0  0  0  0  0  0  0  0  0  0  0
    6.7624    2.2161   -0.7141 C   0  0  0  0  0  0  0  0  0  0  0  0
    4.4913    1.8978    0.3358 C   0  0  0  0  0  0  0  0  0  0  0  0
    3.3365    0.9208    0.5659 C   0  0  0  0  0  0  0  0  0  0  0  0
    2.5941    0.8435   -0.6527 O   0  0  0  0  0  0  0  0  0  0  0  0
    1.4917   -0.0528   -0.6528 C   0  0  0  0  0  0  0  0  0  0  0  0
    0.2903    0.4193    0.1797 C   0  0  0  0  0  0  0  0  0  0  0  0
   -0.3163   -0.8394    0.8390 C   0  0  0  0  0  0  0  0  0  0  0  0
   -1.8574   -0.9057    0.9481 C   0  0  0  0  0  0  0  0  0  0  0  0
   -2.4446    0.3770    1.4779 C   0  0  0  0  0  0  0  0  0  0  0  0
   -3.2390    1.1990    0.7674 C   0  0  0  0  0  0  0  0  0  0  0  0
  1  2  1  0
  2  3  1  0
  2  4  1  0
  4  5  1  0
  5  6  1  0
  6  7  1  0
  6  8  1  0
  8  9  1  0
  9 10  1  0
 10 11  1  0
 11 12  1  0
 12 13  1  0
 12 14  1  0
 14 15  1  0
 14 16  1  0
 16 17  1  0
 17 18  1  0
 18 19  1  0
 19 20  1  0
 20 21  1  0
 20 22  1  0
 22 23  1  0
 23 24  1  0
 24 25  1  0
 25 26  1  0
 26 27  1  0
 27 28  1  0
 28 29  1  0
 29 30  2  0
 30  1  1  0
 30  6  1  0
 28  9  1  0
 27 12  1  0
 25 14  1  0
 23 17  1  0
M  END
>  <target>  (189) 
-7.32

$$$$

     RDKit          3D

  8  8  0  0  0  0  0  0  0  0999 V2000
    2.1186    0.5918   -0.2319 N   0  0  0  0  0  0  0  0  0  0  0  0
    0.7372    0.2863   -0.2154 C   0  0  0  0  0  0  0  0  0  0  0  0
   -0.2317    1.2885   -0.2156 C   0  0  0  0  0  0  0  0  0  0  0  0
   -1.5802    0.9580   -0.0417 C   0  0  0  0  0  0  0  0  0  0  0  0
   -1.9605   -0.3698    0.1723 C   0  0  0  0  0  0  0  0  0  0  0  0
   -0.9942   -1.3728    0.2226 C   0  0  0  0  0  0  0  0  0  0  0  0
    0.3386   -1.0315    0.0428 C   0  0  0  0  0  0  0  0  0  0  0  0
    1.2947   -2.0088    0.1017 O   0  0  0  0  0  0  0  0  0  0  0  0
  1  2  1  0
  2  3  2  0
  3  4  1  0
  4  5  2  0
  5  6  1  0
  6  7  2  0
  7  8  1  0
  7  2  1  0
M  END
>  <target>  (190) 
-0.72

$$$$

     RDKit          3D

 13 12  0  0  0  0  0  0  0  0999 V2000
    5.6674    1.5328   -0.4128 C   0  0  0  0  0  0  0  0  0  0  0  0
    4.5478    0.5563   -0.7358 C   0  0  0  0  0  0  0  0  0  0  0  0
    3.3274    0.7891    0.1544 C   0  0  0  0  0  0  0  0  0  0  0  0
    2.2035   -0.1952   -0.1737 C   0  0  0  0  0  0  0  0  0  0  0  0
    0.9821    0.0378    0.7171 C   0  0  0  0  0  0  0  0  0  0  0  0
   -0.1420   -0.9469    0.3887 C   0  0  0  0  0  0  0  0  0  0  0  0
   -1.3642   -0.7115    1.2808 C   0  0  0  0  0  0  0  0  0  0  0  0
   -2.4844   -1.7121    1.0114 C   0  0  0  0  0  0  0  0  0  0  0  0
   -3.1080   -1.5299   -0.3494 C   0  0  0  0  0  0  0  0  0  0  0  0
   -2.9924   -2.3277   -1.2696 O   0  0  0  0  0  0  0  0  0  0  0  0
   -3.8122   -0.3660   -0.3999 O   0  0  0  0  0  0  0  0  0  0  0  0
   -4.4330   -0.1107   -1.6653 C   0  0  0  0  0  0  0  0  0  0  0  0
   -5.1611    1.2162   -1.5757 C   0  0  0  0  0  0  0  0  0  0  0  0
  1  2  1  0
  2  3  1  0
  3  4  1  0
  4  5  1  0
  5  6  1  0
  6  7  1  0
  7  8  1  0
  8  9  1  0
  9 10  2  0
  9 11  1  0
 11 12  1  0
 12 13  1  0
M  END
>  <target>  (191) 
-3.8

$$$$

     RDKit          3D

 20 20  0  0  0  0  0  0  0  0999 V2000
    1.9076    2.9744   -2.4123 C   0  0  0  0  0  0  0  0  0  0  0  0
    0.6453    3.2659   -1.8261 O   0  0  0  0  0  0  0  0  0  0  0  0
   -0.0208    2.0968   -1.3613 C   0  0  0  0  0  0  0  0  0  0  0  0
    0.5550    1.4454   -0.0805 C   0  0  0  0  0  0  0  0  0  0  0  0
    1.4520    1.9817    0.5764 O   0  0  0  0  0  0  0  0  0  0  0  0
    0.0426    0.1881    0.2771 N   0  0  0  0  0  0  0  0  0  0  0  0
    0.6089   -0.4356    1.4944 C   0  0  0  0  0  0  0  0  0  0  0  0
   -0.1097   -1.6761    2.0335 C   0  0  0  0  0  0  0  0  0  0  0  0
    2.0638   -0.8418    1.2070 C   0  0  0  0  0  0  0  0  0  0  0  0
    2.4985   -1.2107    0.1215 O   0  0  0  0  0  0  0  0  0  0  0  0
    2.7989   -0.7873    2.3584 O   0  0  0  0  0  0  0  0  0  0  0  0
    4.1753   -1.1221    2.1824 C   0  0  0  0  0  0  0  0  0  0  0  0
   -1.2286   -0.2375   -0.1913 C   0  0  0  0  0  0  0  0  0  0  0  0
   -2.4132    0.3073    0.3549 C   0  0  0  0  0  0  0  0  0  0  0  0
   -2.4000    1.3432    1.4476 C   0  0  0  0  0  0  0  0  0  0  0  0
   -3.6501   -0.1298   -0.1415 C   0  0  0  0  0  0  0  0  0  0  0  0
   -3.7148   -1.0937   -1.1450 C   0  0  0  0  0  0  0  0  0  0  0  0
   -2.5443   -1.6314   -1.6745 C   0  0  0  0  0  0  0  0  0  0  0  0
   -1.2897   -1.2054   -1.2164 C   0  0  0  0  0  0  0  0  0  0  0  0
   -0.0529   -1.8196   -1.8152 C   0  0  0  0  0  0  0  0  0  0  0  0
  1  2  1  0
  2  3  1  0
  3  4  1  0
  4  5  2  0
  4  6  1  0
  6  7  1  0
  7  8  1  0
  7  9  1  0
  9 10  2  0
  9 11  1  0
 11 12  1  0
  6 13  1  0
 13 14  2  0
 14 15  1  0
 14 16  1  0
 16 17  2  0
 17 18  1  0
 18 19  2  0
 19 20  1  0
 19 13  1  0
M  END
>  <target>  (192) 
-1.601

$$$$

     RDKit          3D

 15 15  0  0  0  0  0  0  0  0999 V2000
   -3.4263   -2.2933    0.6348 C   0  0  0  0  0  0  0  0  0  0  0  0
   -2.5418   -1.4549    1.3952 N   0  0  0  0  0  0  0  0  0  0  0  0
   -1.9613   -0.3420    0.8486 C   0  0  0  0  0  0  0  0  0  0  0  0
   -2.2439    0.1153   -0.2513 O   0  0  0  0  0  0  0  0  0  0  0  0
   -1.0252    0.1584    1.7360 O   0  0  0  0  0  0  0  0  0  0  0  0
   -0.2798    1.2118    1.1983 C   0  0  0  0  0  0  0  0  0  0  0  0
   -0.6274    2.5145    1.5564 C   0  0  0  0  0  0  0  0  0  0  0  0
    0.1270    3.5783    1.0665 C   0  0  0  0  0  0  0  0  0  0  0  0
    1.2287    3.3314    0.2446 C   0  0  0  0  0  0  0  0  0  0  0  0
    1.5806    2.0199   -0.0940 C   0  0  0  0  0  0  0  0  0  0  0  0
    0.8188    0.9479    0.3727 C   0  0  0  0  0  0  0  0  0  0  0  0
    1.1297   -0.3632    0.1316 O   0  0  0  0  0  0  0  0  0  0  0  0
    1.4898   -0.6767   -1.2212 C   0  0  0  0  0  0  0  0  0  0  0  0
    2.9626   -1.0718   -1.2528 C   0  0  0  0  0  0  0  0  0  0  0  0
    0.6198   -1.8506   -1.6626 C   0  0  0  0  0  0  0  0  0  0  0  0
  1  2  1  0
  2  3  1  0
  3  4  2  0
  3  5  1  0
  5  6  1  0
  6  7  2  0
  7  8  1  0
  8  9  2  0
  9 10  1  0
 10 11  2  0
 11 12  1  0
 12 13  1  0
 13 14  1  0
 13 15  1  0
 11  6  1  0
M  END
>  <target>  (193) 
-2.05

$$$$

     RDKit          3D

  5  4  0  0  0  0  0  0  0  0999 V2000
    1.9264   -0.0500    0.3648 C   0  0  0  0  0  0  0  0  0  0  0  0
    0.4495   -0.3663    0.5627 C   0  0  0  0  0  0  0  0  0  0  0  0
   -0.4695    0.3684   -0.4202 C   0  0  0  0  0  0  0  0  0  0  0  0
   -1.9132   -0.0983   -0.2762 C   0  0  0  0  0  0  0  0  0  0  0  0
   -0.4052    2.1378   -0.1602 Cl  0  0  0  0  0  0  0  0  0  0  0  0
  1  2  1  0
  2  3  1  0
  3  4  1  0
  3  5  1  0
M  END
>  <target>  (194) 
-1.96

$$$$

     RDKit          3D

 11 12  0  0  0  0  0  0  0  0999 V2000
   -3.0651    1.6620    0.9356 O   0  0  0  0  0  0  0  0  0  0  0  0
   -2.0228    0.8386    0.6255 C   0  0  0  0  0  0  0  0  0  0  0  0
   -2.1442   -0.5429    0.7075 C   0  0  0  0  0  0  0  0  0  0  0  0
   -1.0502   -1.3471    0.3802 C   0  0  0  0  0  0  0  0  0  0  0  0
    0.1664   -0.7754   -0.0295 C   0  0  0  0  0  0  0  0  0  0  0  0
    1.2749   -1.5709   -0.3618 C   0  0  0  0  0  0  0  0  0  0  0  0
    2.4764   -0.9871   -0.7669 C   0  0  0  0  0  0  0  0  0  0  0  0
    2.5856    0.3983   -0.8452 C   0  0  0  0  0  0  0  0  0  0  0  0
    1.4936    1.2039   -0.5186 C   0  0  0  0  0  0  0  0  0  0  0  0
    0.2778    0.6329   -0.1092 C   0  0  0  0  0  0  0  0  0  0  0  0
   -0.8294    1.4289    0.2227 C   0  0  0  0  0  0  0  0  0  0  0  0
  1  2  1  0
  2  3  2  0
  3  4  1  0
  4  5  2  0
  5  6  1  0
  6  7  2  0
  7  8  1  0
  8  9  2  0
  9 10  1  0
 10 11  2  0
 11  2  1  0
 10  5  1  0
M  END
>  <target>  (195) 
-2.28

$$$$

     RDKit          3D

 22 23  0  0  0  0  0  0  0  0999 V2000
    4.5925    1.1806    1.8222 C   0  0  0  0  0  0  0  0  0  0  0  0
    4.4271    0.1070    0.7527 C   0  0  0  0  0  0  0  0  0  0  0  0
    5.7505   -0.6078    0.4994 C   0  0  0  0  0  0  0  0  0  0  0  0
    4.0368    0.7547   -0.4698 O   0  0  0  0  0  0  0  0  0  0  0  0
    2.8808    0.2611   -1.0151 C   0  0  0  0  0  0  0  0  0  0  0  0
    1.6694    0.3503   -0.3156 C   0  0  0  0  0  0  0  0  0  0  0  0
    0.4523   -0.1005   -0.8666 C   0  0  0  0  0  0  0  0  0  0  0  0
    0.5032   -0.6375   -2.1756 C   0  0  0  0  0  0  0  0  0  0  0  0
   -0.8518   -1.3081   -3.0268 Cl  0  0  0  0  0  0  0  0  0  0  0  0
    1.7151   -0.6982   -2.8854 C   0  0  0  0  0  0  0  0  0  0  0  0
    2.8970   -0.2427   -2.3117 C   0  0  0  0  0  0  0  0  0  0  0  0
    4.3545   -0.3375   -3.2288 Cl  0  0  0  0  0  0  0  0  0  0  0  0
   -0.7379    0.0184   -0.0942 N   0  0  0  0  0  0  0  0  0  0  0  0
   -1.9637   -0.1893   -0.6526 N   0  0  0  0  0  0  0  0  0  0  0  0
   -2.7859    0.0307    0.3210 C   0  0  0  0  0  0  0  0  0  0  0  0
   -2.2231    0.3767    1.4943 O   0  0  0  0  0  0  0  0  0  0  0  0
   -0.8822    0.3722    1.2391 C   0  0  0  0  0  0  0  0  0  0  0  0
   -0.0455    0.6295    2.0891 O   0  0  0  0  0  0  0  0  0  0  0  0
   -4.2914   -0.0513    0.2780 C   0  0  0  0  0  0  0  0  0  0  0  0
   -4.7684   -1.0619    1.3289 C   0  0  0  0  0  0  0  0  0  0  0  0
   -4.8712    1.3372    0.5750 C   0  0  0  0  0  0  0  0  0  0  0  0
   -4.7615   -0.5097   -1.1108 C   0  0  0  0  0  0  0  0  0  0  0  0
  1  2  1  0
  2  3  1  0
  2  4  1  0
  4  5  1  0
  5  6  2  0
  6  7  1  0
  7  8  2  0
  8  9  1  0
  8 10  1  0
 10 11  2  0
 11 12  1  0
  7 13  1  0
 13 14  1  0
 14 15  2  0
 15 16  1  0
 16 17  1  0
 17 18  2  0
 15 19  1  0
 19 20  1  0
 19 21  1  0
 19 22  1  0
 11  5  1  0
 17 13  1  0
M  END
>  <target>  (196) 
-5.696000000000001

$$$$

     RDKit          3D

  6  5  0  0  0  0  0  0  0  0999 V2000
   -2.2939    0.9502   -0.0325 C   0  0  0  0  0  0  0  0  0  0  0  0
   -1.3400   -0.2313    0.0437 C   0  0  0  0  0  0  0  0  0  0  0  0
    0.1190    0.2231    0.0047 C   0  0  0  0  0  0  0  0  0  0  0  0
    1.0749   -0.9672    0.0816 C   0  0  0  0  0  0  0  0  0  0  0  0
    2.4766   -0.5246    0.0437 C   0  0  0  0  0  0  0  0  0  0  0  0
    3.6224   -0.1664    0.0130 C   0  0  0  0  0  0  0  0  0  0  0  0
  1  2  1  0
  2  3  1  0
  3  4  1  0
  4  5  1  0
  5  6  3  0
M  END
>  <target>  (197) 
-2.36

$$$$

     RDKit          3D

  9  8  0  0  0  0  0  0  0  0999 V2000
    3.9905    1.1100    0.3149 C   0  0  0  0  0  0  0  0  0  0  0  0
    2.9484    0.1264   -0.1931 C   0  0  0  0  0  0  0  0  0  0  0  0
    1.5595    0.4476    0.3583 C   0  0  0  0  0  0  0  0  0  0  0  0
    0.5141   -0.5440   -0.1551 C   0  0  0  0  0  0  0  0  0  0  0  0
   -0.8764   -0.2227    0.3970 C   0  0  0  0  0  0  0  0  0  0  0  0
   -1.9215   -1.2180   -0.1184 C   0  0  0  0  0  0  0  0  0  0  0  0
   -3.3168   -0.9655    0.4555 C   0  0  0  0  0  0  0  0  0  0  0  0
   -3.9187    0.2719   -0.0634 C   0  0  0  0  0  0  0  0  0  0  0  0
   -4.4141    1.2812   -0.4852 C   0  0  0  0  0  0  0  0  0  0  0  0
  1  2  1  0
  2  3  1  0
  3  4  1  0
  4  5  1  0
  5  6  1  0
  6  7  1  0
  7  8  1  0
  8  9  3  0
M  END
>  <target>  (198) 
-4.24

$$$$

     RDKit          3D

  8  8  0  0  0  0  0  0  0  0999 V2000
    2.2059   -0.1433   -0.0698 C   0  0  0  0  0  0  0  0  0  0  0  0
    0.7069   -0.0534   -0.0229 C   0  0  0  0  0  0  0  0  0  0  0  0
   -0.0588   -1.2289   -0.0779 C   0  0  0  0  0  0  0  0  0  0  0  0
   -1.4538   -1.1754   -0.0361 C   0  0  0  0  0  0  0  0  0  0  0  0
   -2.1032    0.0525    0.0611 C   0  0  0  0  0  0  0  0  0  0  0  0
   -1.3570    1.2290    0.1168 C   0  0  0  0  0  0  0  0  0  0  0  0
    0.0394    1.1777    0.0751 C   0  0  0  0  0  0  0  0  0  0  0  0
    0.9048    2.6717    0.1480 Cl  0  0  0  0  0  0  0  0  0  0  0  0
  1  2  1  0
  2  3  2  0
  3  4  1  0
  4  5  2  0
  5  6  1  0
  6  7  2  0
  7  8  1  0
  7  2  1  0
M  END
>  <target>  (199) 
-3.52

$$$$

     RDKit          3D

  7  6  0  0  0  0  0  0  0  0999 V2000
    2.1735   -1.1820    0.1183 C   0  0  0  0  0  0  0  0  0  0  0  0
    1.1228   -0.1672   -0.3162 C   0  0  0  0  0  0  0  0  0  0  0  0
    1.7423    1.2219   -0.4325 C   0  0  0  0  0  0  0  0  0  0  0  0
    0.1027   -0.1602    0.6860 O   0  0  0  0  0  0  0  0  0  0  0  0
   -1.1831    0.2612    0.2231 C   0  0  0  0  0  0  0  0  0  0  0  0
   -1.9319   -0.9261   -0.3739 C   0  0  0  0  0  0  0  0  0  0  0  0
   -1.9366    0.8123    1.4277 C   0  0  0  0  0  0  0  0  0  0  0  0
  1  2  1  0
  2  3  1  0
  2  4  1  0
  4  5  1  0
  5  6  1  0
  5  7  1  0
M  END
>  <target>  (200) 
-1.1

$$$$

     RDKit          3D

 17 18  0  0  0  0  0  0  0  0999 V2000
   -4.7815    1.4945   -0.3012 N   0  0  0  0  0  0  0  0  0  0  0  0
   -3.6970    0.6124   -0.2331 C   0  0  0  0  0  0  0  0  0  0  0  0
   -3.6022   -0.3047    0.8188 C   0  0  0  0  0  0  0  0  0  0  0  0
   -2.4720   -1.1140    0.9635 C   0  0  0  0  0  0  0  0  0  0  0  0
   -1.4095   -0.9726    0.0699 C   0  0  0  0  0  0  0  0  0  0  0  0
   -1.4618   -0.0233   -0.9522 C   0  0  0  0  0  0  0  0  0  0  0  0
   -2.5971    0.7814   -1.0815 C   0  0  0  0  0  0  0  0  0  0  0  0
    0.0355   -1.9934    0.2392 S   0  0  0  0  0  0  0  0  0  0  0  0
   -0.0553   -2.6883    1.5107 O   0  0  0  0  0  0  0  0  0  0  0  0
    0.1519   -2.7342   -1.0037 O   0  0  0  0  0  0  0  0  0  0  0  0
    1.4426   -0.9145    0.3679 C   0  0  0  0  0  0  0  0  0  0  0  0
    1.5186   -0.0154    1.4331 C   0  0  0  0  0  0  0  0  0  0  0  0
    2.6235    0.8344    1.5339 C   0  0  0  0  0  0  0  0  0  0  0  0
    3.6722    0.7600    0.6104 C   0  0  0  0  0  0  0  0  0  0  0  0
    4.7162    1.6909    0.6542 N   0  0  0  0  0  0  0  0  0  0  0  0
    3.5521   -0.1101   -0.4782 C   0  0  0  0  0  0  0  0  0  0  0  0
    2.4530   -0.9653   -0.5934 C   0  0  0  0  0  0  0  0  0  0  0  0
  1  2  1  0
  2  3  2  0
  3  4  1  0
  4  5  2  0
  5  6  1  0
  6  7  2  0
  5  8  1  0
  8  9  2  0
  8 10  2  0
  8 11  1  0
 11 12  2  0
 12 13  1  0
 13 14  2  0
 14 15  1  0
 14 16  1  0
 16 17  2  0
  7  2  1  0
 17 11  1  0
M  END
>  <target>  (201) 
-3.094

$$$$

     RDKit          3D

  3  2  0  0  0  0  0  0  0  0999 V2000
   -1.0489   -0.0002    0.1530 C   0  0  0  0  0  0  0  0  0  0  0  0
    0.2417    0.6099   -0.1707 N   0  0  0  0  0  0  0  0  0  0  0  0
    1.2698   -0.4029   -0.0851 N   0  0  0  0  0  0  0  0  0  0  0  0
  1  2  1  0
  2  3  1  0
M  END
>  <target>  (202) 
1.34

$$$$

     RDKit          3D

  3  2  0  0  0  0  0  0  0  0999 V2000
   -0.9398    0.0918    0.0834 C   0  0  0  0  0  0  0  0  0  0  0  0
    0.4991   -0.0488    0.3095 C   0  0  0  0  0  0  0  0  0  0  0  0
    1.6798   -0.1641    0.4950 C   0  0  0  0  0  0  0  0  0  0  0  0
  1  2  1  0
  2  3  3  0
M  END
>  <target>  (203) 
-0.41

$$$$

     RDKit          3D

 19 19  0  0  0  0  0  0  0  0999 V2000
   -2.7727    2.7871    2.2457 C   0  0  0  0  0  0  0  0  0  0  0  0
   -2.1799    1.4557    2.6595 C   0  0  0  0  0  0  0  0  0  0  0  0
   -1.4147    0.9482    1.5806 O   0  0  0  0  0  0  0  0  0  0  0  0
   -0.9180   -0.5936    1.6490 P   0  0  0  0  0  0  0  0  0  0  0  0
    0.2268   -1.0814    3.1398 S   0  0  0  0  0  0  0  0  0  0  0  0
   -2.3338   -1.3774    1.5438 O   0  0  0  0  0  0  0  0  0  0  0  0
   -2.3107   -2.7801    1.3364 C   0  0  0  0  0  0  0  0  0  0  0  0
   -3.7158   -3.2416    1.0084 C   0  0  0  0  0  0  0  0  0  0  0  0
   -0.3125   -0.8136    0.1450 O   0  0  0  0  0  0  0  0  0  0  0  0
    0.8391   -0.0556   -0.1674 N   0  0  0  0  0  0  0  0  0  0  0  0
    1.2927   -0.2865   -1.3653 C   0  0  0  0  0  0  0  0  0  0  0  0
    0.5944   -1.2540   -2.1899 C   0  0  0  0  0  0  0  0  0  0  0  0
    0.0537   -2.0288   -2.8680 N   0  0  0  0  0  0  0  0  0  0  0  0
    2.4925    0.3984   -1.9068 C   0  0  0  0  0  0  0  0  0  0  0  0
    3.1819    1.3039   -1.0860 C   0  0  0  0  0  0  0  0  0  0  0  0
    4.3154    1.9668   -1.5609 C   0  0  0  0  0  0  0  0  0  0  0  0
    4.7686    1.7318   -2.8571 C   0  0  0  0  0  0  0  0  0  0  0  0
    4.0909    0.8345   -3.6805 C   0  0  0  0  0  0  0  0  0  0  0  0
    2.9558    0.1677   -3.2105 C   0  0  0  0  0  0  0  0  0  0  0  0
  1  2  1  0
  2  3  1  0
  3  4  1  0
  4  5  2  0
  4  6  1  0
  6  7  1  0
  7  8  1  0
  4  9  1  0
  9 10  1  0
 10 11  2  3
 11 12  1  0
 12 13  3  0
 11 14  1  0
 14 15  2  0
 15 16  1  0
 16 17  2  0
 17 18  1  0
 18 19  2  0
 19 14  1  0
M  END
>  <target>  (204) 
-4.862

$$$$

     RDKit          3D

 17 16  0  0  0  0  0  0  0  0999 V2000
    4.8318    2.6325   -0.1367 C   0  0  0  0  0  0  0  0  0  0  0  0
    4.5787    1.1832   -0.5201 C   0  0  0  0  0  0  0  0  0  0  0  0
    3.1936    0.8269   -0.2466 N   0  0  0  0  0  0  0  0  0  0  0  0
    2.6962   -0.7152   -0.5570 P   0  0  0  0  0  0  0  0  0  0  0  0
    2.9515   -1.4721   -2.3280 S   0  0  0  0  0  0  0  0  0  0  0  0
    3.4533   -1.5396    0.6203 O   0  0  0  0  0  0  0  0  0  0  0  0
    3.1624   -2.9140    0.7896 C   0  0  0  0  0  0  0  0  0  0  0  0
    1.1747   -0.7826    0.0049 O   0  0  0  0  0  0  0  0  0  0  0  0
    0.0409   -0.0634   -0.3717 C   0  0  0  0  0  0  0  0  0  0  0  0
   -1.1220   -0.4402    0.1833 C   0  0  0  0  0  0  0  0  0  0  0  0
   -2.4342    0.2126   -0.0119 C   0  0  0  0  0  0  0  0  0  0  0  0
   -2.6210    1.3296   -0.4593 O   0  0  0  0  0  0  0  0  0  0  0  0
   -3.3863   -0.6534    0.4202 O   0  0  0  0  0  0  0  0  0  0  0  0
   -4.7476   -0.1957    0.3153 C   0  0  0  0  0  0  0  0  0  0  0  0
   -5.0995    0.6431    1.5387 C   0  0  0  0  0  0  0  0  0  0  0  0
   -5.6329   -1.4334    0.2371 C   0  0  0  0  0  0  0  0  0  0  0  0
    0.2227    1.0611   -1.3504 C   0  0  0  0  0  0  0  0  0  0  0  0
  1  2  1  0
  2  3  1  0
  3  4  1  0
  4  5  2  0
  4  6  1  0
  6  7  1  0
  4  8  1  0
  8  9  1  0
  9 10  2  3
 10 11  1  0
 11 12  2  0
 11 13  1  0
 13 14  1  0
 14 15  1  0
 14 16  1  0
  9 17  1  0
M  END
>  <target>  (205) 
-3.408

$$$$

     RDKit          3D

  4  3  0  0  0  0  0  0  0  0999 V2000
   -1.2007    0.2007    0.1405 C   0  0  0  0  0  0  0  0  0  0  0  0
   -0.0751   -0.5127    0.0289 C   0  0  0  0  0  0  0  0  0  0  0  0
    1.2280    0.1552   -0.1575 C   0  0  0  0  0  0  0  0  0  0  0  0
    2.2640   -0.4891   -0.2607 O   0  0  0  0  0  0  0  0  0  0  0  0
  1  2  2  0
  2  3  1  0
  3  4  2  0
M  END
>  <target>  (206) 
0.57

$$$$

     RDKit          3D

 10 11  0  0  0  0  0  0  0  0999 V2000
    0.8858    2.3243   -0.4284 O   0  0  0  0  0  0  0  0  0  0  0  0
    0.8298    1.1199   -0.2141 C   0  0  0  0  0  0  0  0  0  0  0  0
    1.9441    0.3267   -0.0951 N   0  0  0  0  0  0  0  0  0  0  0  0
    1.8665   -1.0281    0.1462 C   0  0  0  0  0  0  0  0  0  0  0  0
    0.7871   -1.7285    0.2909 N   0  0  0  0  0  0  0  0  0  0  0  0
   -0.3834   -0.9739    0.1797 C   0  0  0  0  0  0  0  0  0  0  0  0
   -1.6625   -1.4314    0.2852 N   0  0  0  0  0  0  0  0  0  0  0  0
   -2.4182   -0.3663    0.1112 C   0  0  0  0  0  0  0  0  0  0  0  0
   -1.6679    0.7598   -0.1026 N   0  0  0  0  0  0  0  0  0  0  0  0
   -0.3621    0.3723   -0.0590 C   0  0  0  0  0  0  0  0  0  0  0  0
  1  2  2  0
  2  3  1  0
  3  4  1  0
  4  5  2  0
  5  6  1  0
  6  7  1  0
  7  8  2  0
  8  9  1  0
  9 10  1  0
 10  2  1  0
 10  6  2  0
M  END
>  <target>  (207) 
-2.296

$$$$

     RDKit          3D

 11 12  0  0  0  0  0  0  0  0999 V2000
   -3.1801    1.3964   -0.1173 O   0  0  0  0  0  0  0  0  0  0  0  0
   -2.0544    0.6409    0.0178 C   0  0  0  0  0  0  0  0  0  0  0  0
   -2.1077   -0.6622    0.4908 C   0  0  0  0  0  0  0  0  0  0  0  0
   -0.9214   -1.3940    0.6101 C   0  0  0  0  0  0  0  0  0  0  0  0
    0.3115   -0.8523    0.2677 C   0  0  0  0  0  0  0  0  0  0  0  0
    1.4217   -1.5991    0.4015 N   0  0  0  0  0  0  0  0  0  0  0  0
    2.6045   -1.0418    0.0596 C   0  0  0  0  0  0  0  0  0  0  0  0
    2.7416    0.2476   -0.4186 C   0  0  0  0  0  0  0  0  0  0  0  0
    1.5930    1.0170   -0.5559 C   0  0  0  0  0  0  0  0  0  0  0  0
    0.3474    0.4753   -0.2120 C   0  0  0  0  0  0  0  0  0  0  0  0
   -0.8403    1.2159   -0.3343 C   0  0  0  0  0  0  0  0  0  0  0  0
  1  2  1  0
  2  3  2  0
  3  4  1  0
  4  5  2  0
  5  6  1  0
  6  7  2  0
  7  8  1  0
  8  9  2  0
  9 10  1  0
 10 11  2  0
 10  5  1  0
 11  2  1  0
M  END
>  <target>  (208) 
-2.16

$$$$

     RDKit          3D

  7  7  0  0  0  0  0  0  0  0999 V2000
    2.6926   -0.1973    0.0564 F   0  0  0  0  0  0  0  0  0  0  0  0
    1.3569   -0.0994    0.0284 C   0  0  0  0  0  0  0  0  0  0  0  0
    0.5857   -1.2567    0.0218 C   0  0  0  0  0  0  0  0  0  0  0  0
   -0.8049   -1.1551   -0.0074 C   0  0  0  0  0  0  0  0  0  0  0  0
   -1.4106    0.1034   -0.0295 C   0  0  0  0  0  0  0  0  0  0  0  0
   -0.6276    1.2601   -0.0226 C   0  0  0  0  0  0  0  0  0  0  0  0
    0.7629    1.1579    0.0065 C   0  0  0  0  0  0  0  0  0  0  0  0
  1  2  1  0
  2  3  2  0
  3  4  1  0
  4  5  2  0
  5  6  1  0
  6  7  2  0
  7  2  1  0
M  END
>  <target>  (209) 
-1.8

$$$$

     RDKit          3D

  4  3  0  0  0  0  0  0  0  0999 V2000
   -1.2560   -0.0725   -0.3129 C   0  0  0  0  0  0  0  0  0  0  0  0
   -0.0651   -0.0133    0.6332 C   0  0  0  0  0  0  0  0  0  0  0  0
    1.2801   -0.0475   -0.0826 C   0  0  0  0  0  0  0  0  0  0  0  0
    1.5515    1.4112   -1.0635 Cl  0  0  0  0  0  0  0  0  0  0  0  0
  1  2  1  0
  2  3  1  0
  3  4  1  0
M  END
>  <target>  (210) 
-1.47

$$$$

     RDKit          3D

  6  5  0  0  0  0  0  0  0  0999 V2000
   -2.3013    0.2162   -0.1418 C   0  0  0  0  0  0  0  0  0  0  0  0
   -1.0498   -0.5979    0.1229 C   0  0  0  0  0  0  0  0  0  0  0  0
    0.0865    0.2541   -0.0653 O   0  0  0  0  0  0  0  0  0  0  0  0
    1.2831   -0.3600    0.1436 C   0  0  0  0  0  0  0  0  0  0  0  0
    1.4355   -1.5301    0.4642 O   0  0  0  0  0  0  0  0  0  0  0  0
    2.4023    0.6108   -0.0772 C   0  0  0  0  0  0  0  0  0  0  0  0
  1  2  1  0
  2  3  1  0
  3  4  1  0
  4  5  2  0
  4  6  1  0
M  END
>  <target>  (211) 
-0.04

$$$$

     RDKit          3D

  7  6  0  0  0  0  0  0  0  0999 V2000
    2.9913   -0.2564    0.0137 C   0  0  0  0  0  0  0  0  0  0  0  0
    1.5350   -0.6767   -0.1287 C   0  0  0  0  0  0  0  0  0  0  0  0
    0.5903    0.4999    0.1398 C   0  0  0  0  0  0  0  0  0  0  0  0
   -0.9257    0.1880    0.0228 C   0  0  0  0  0  0  0  0  0  0  0  0
   -1.7065    1.4823    0.3249 C   0  0  0  0  0  0  0  0  0  0  0  0
   -1.3528   -0.8864    1.0364 C   0  0  0  0  0  0  0  0  0  0  0  0
   -1.2897   -0.2807   -1.3956 C   0  0  0  0  0  0  0  0  0  0  0  0
  1  2  1  0
  2  3  1  0
  3  4  1  0
  4  5  1  0
  4  6  1  0
  4  7  1  0
M  END
>  <target>  (212) 
-4.36

$$$$

     RDKit          3D

 11 11  0  0  0  0  0  0  0  0999 V2000
   -1.9475   -2.4417   -0.0027 C   0  0  0  0  0  0  0  0  0  0  0  0
   -0.9208   -1.3403    0.0165 C   0  0  0  0  0  0  0  0  0  0  0  0
    0.4230   -1.6876    0.2069 C   0  0  0  0  0  0  0  0  0  0  0  0
    1.4384   -0.7228    0.2304 C   0  0  0  0  0  0  0  0  0  0  0  0
    2.8575   -1.1840    0.4330 C   0  0  0  0  0  0  0  0  0  0  0  0
    1.1074    0.6362    0.0494 C   0  0  0  0  0  0  0  0  0  0  0  0
    2.1912    1.6892    0.0533 C   0  0  0  0  0  0  0  0  0  0  0  0
   -0.2567    1.0119   -0.0904 C   0  0  0  0  0  0  0  0  0  0  0  0
   -0.6287    2.4741   -0.2084 C   0  0  0  0  0  0  0  0  0  0  0  0
   -1.2672    0.0147   -0.1660 C   0  0  0  0  0  0  0  0  0  0  0  0
   -2.7092    0.4066   -0.3910 C   0  0  0  0  0  0  0  0  0  0  0  0
  1  2  1  0
  2  3  2  0
  3  4  1  0
  4  5  1  0
  4  6  2  0
  6  7  1  0
  6  8  1  0
  8  9  1  0
  8 10  2  0
 10 11  1  0
 10  2  1  0
M  END
>  <target>  (213) 
-4.0

$$$$

     RDKit          3D

 11 12  0  0  0  0  0  0  0  0999 V2000
   -2.3622   -1.4623   -0.2591 C   0  0  0  0  0  0  0  0  0  0  0  0
   -1.2195   -0.4671   -0.0864 C   0  0  0  0  0  0  0  0  0  0  0  0
   -1.2484    0.6058   -1.1919 C   0  0  0  0  0  0  0  0  0  0  0  0
   -0.0922    1.5913   -0.9863 C   0  0  0  0  0  0  0  0  0  0  0  0
    0.7789    1.1051    0.1880 C   0  0  0  0  0  0  0  0  0  0  0  0
   -0.1112    1.1916    1.4427 C   0  0  0  0  0  0  0  0  0  0  0  0
   -1.2679    0.1951    1.3040 C   0  0  0  0  0  0  0  0  0  0  0  0
    1.1926   -0.3766   -0.0526 C   0  0  0  0  0  0  0  0  0  0  0  0
    2.0063   -0.9484    1.1182 C   0  0  0  0  0  0  0  0  0  0  0  0
    2.0255   -0.5451   -1.3324 C   0  0  0  0  0  0  0  0  0  0  0  0
    0.0167   -1.2015   -0.1976 O   0  0  0  0  0  0  0  0  0  0  0  0
  1  2  1  0
  2  3  1  0
  3  4  1  0
  4  5  1  0
  5  6  1  0
  6  7  1  0
  5  8  1  0
  8  9  1  0
  8 10  1  0
  8 11  1  0
  7  2  1  0
 11  2  1  0
M  END
>  <target>  (214) 
-1.64

$$$$

     RDKit          3D

 22 21  0  0  0  0  0  0  0  0999 V2000
   -9.0130   -0.7101    2.2625 C   0  0  0  0  0  0  0  0  0  0  0  0
   -7.9478    0.3472    2.0175 C   0  0  0  0  0  0  0  0  0  0  0  0
   -8.0489    0.9252    0.6042 C   0  0  0  0  0  0  0  0  0  0  0  0
   -7.0138    2.0199    0.3520 C   0  0  0  0  0  0  0  0  0  0  0  0
   -5.6779    1.5207    0.5175 O   0  0  0  0  0  0  0  0  0  0  0  0
   -5.1335    0.9078   -0.5724 C   0  0  0  0  0  0  0  0  0  0  0  0
   -5.6883    0.7637   -1.6519 O   0  0  0  0  0  0  0  0  0  0  0  0
   -3.7343    0.4428   -0.2332 C   0  0  0  0  0  0  0  0  0  0  0  0
   -3.1052   -0.3589   -1.3728 C   0  0  0  0  0  0  0  0  0  0  0  0
   -1.7519   -0.9823   -1.0115 C   0  0  0  0  0  0  0  0  0  0  0  0
   -0.6488    0.0535   -0.7764 C   0  0  0  0  0  0  0  0  0  0  0  0
    0.7074   -0.5667   -0.4145 C   0  0  0  0  0  0  0  0  0  0  0  0
    1.3624   -1.3229   -1.5742 C   0  0  0  0  0  0  0  0  0  0  0  0
    2.7284   -1.9219   -1.2183 C   0  0  0  0  0  0  0  0  0  0  0  0
    3.8034   -0.8701   -0.9452 C   0  0  0  0  0  0  0  0  0  0  0  0
    5.1719   -1.4872   -0.7584 C   0  0  0  0  0  0  0  0  0  0  0  0
    5.4298   -2.6814   -0.7963 O   0  0  0  0  0  0  0  0  0  0  0  0
    6.0823   -0.4963   -0.5350 O   0  0  0  0  0  0  0  0  0  0  0  0
    7.4229   -0.9623   -0.3349 C   0  0  0  0  0  0  0  0  0  0  0  0
    8.3341    0.2346   -0.0756 C   0  0  0  0  0  0  0  0  0  0  0  0
    7.9687    0.9707    1.2154 C   0  0  0  0  0  0  0  0  0  0  0  0
    8.9084    2.1380    1.4742 C   0  0  0  0  0  0  0  0  0  0  0  0
  1  2  1  0
  2  3  1  0
  3  4  1  0
  4  5  1  0
  5  6  1  0
  6  7  2  0
  6  8  1  0
  8  9  1  0
  9 10  1  0
 10 11  1  0
 11 12  1  0
 12 13  1  0
 13 14  1  0
 14 15  1  0
 15 16  1  0
 16 17  2  0
 16 18  1  0
 18 19  1  0
 19 20  1  0
 20 21  1  0
 21 22  1  0
M  END
>  <target>  (215) 
-3.8960000000000004

$$$$

     RDKit          3D

 14 15  0  0  0  0  0  0  0  0999 V2000
   -5.2429    0.5242    0.1195 Cl  0  0  0  0  0  0  0  0  0  0  0  0
   -3.5320    0.3532    0.0805 C   0  0  0  0  0  0  0  0  0  0  0  0
   -2.8093    0.8620   -0.9946 C   0  0  0  0  0  0  0  0  0  0  0  0
   -1.4180    0.7226   -1.0245 C   0  0  0  0  0  0  0  0  0  0  0  0
   -0.7321    0.0732    0.0167 C   0  0  0  0  0  0  0  0  0  0  0  0
   -1.4853   -0.4322    1.0906 C   0  0  0  0  0  0  0  0  0  0  0  0
   -2.8765   -0.2935    1.1242 C   0  0  0  0  0  0  0  0  0  0  0  0
    0.7321   -0.0732   -0.0167 C   0  0  0  0  0  0  0  0  0  0  0  0
    1.3362   -1.3352    0.1200 C   0  0  0  0  0  0  0  0  0  0  0  0
    2.7272   -1.4761    0.0879 C   0  0  0  0  0  0  0  0  0  0  0  0
    3.5320   -0.3532   -0.0805 C   0  0  0  0  0  0  0  0  0  0  0  0
    5.2429   -0.5242   -0.1195 Cl  0  0  0  0  0  0  0  0  0  0  0  0
    2.9586    0.9076   -0.2175 C   0  0  0  0  0  0  0  0  0  0  0  0
    1.5672    1.0449   -0.1861 C   0  0  0  0  0  0  0  0  0  0  0  0
  1  2  1  0
  2  3  2  0
  3  4  1  0
  4  5  2  0
  5  6  1  0
  6  7  2  0
  5  8  1  0
  8  9  2  0
  9 10  1  0
 10 11  2  0
 11 12  1  0
 11 13  1  0
 13 14  2  0
  7  2  1  0
 14  8  1  0
M  END
>  <target>  (216) 
-6.56

$$$$

     RDKit          3D

  8  8  0  0  0  0  0  0  0  0999 V2000
   -0.9844    1.7313   -0.0878 C   0  0  0  0  0  0  0  0  0  0  0  0
    0.0069    0.6073   -0.0335 C   0  0  0  0  0  0  0  0  0  0  0  0
    1.3796    0.8791   -0.0588 C   0  0  0  0  0  0  0  0  0  0  0  0
    2.2959   -0.1647   -0.0083 C   0  0  0  0  0  0  0  0  0  0  0  0
    1.8085   -1.4553    0.0664 C   0  0  0  0  0  0  0  0  0  0  0  0
    0.4942   -1.7598    0.0931 N   0  0  0  0  0  0  0  0  0  0  0  0
   -0.3922   -0.7333    0.0433 C   0  0  0  0  0  0  0  0  0  0  0  0
   -1.8426   -1.1209    0.0756 C   0  0  0  0  0  0  0  0  0  0  0  0
  1  2  1  0
  2  3  2  0
  3  4  1  0
  4  5  2  0
  5  6  1  0
  6  7  2  0
  7  8  1  0
  7  2  1  0
M  END
>  <target>  (217) 
0.38

$$$$

     RDKit          3D

 11 11  0  0  0  0  0  0  0  0999 V2000
   -2.8028    1.4634   -0.5608 C   0  0  0  0  0  0  0  0  0  0  0  0
   -2.1514    0.2169   -0.0134 C   0  0  0  0  0  0  0  0  0  0  0  0
   -2.9150   -0.8151    0.3863 C   0  0  0  0  0  0  0  0  0  0  0  0
   -0.6252    0.2545    0.0720 C   0  0  0  0  0  0  0  0  0  0  0  0
    0.0110    0.1638   -1.3286 C   0  0  0  0  0  0  0  0  0  0  0  0
    1.5105    0.0917   -1.2832 C   0  0  0  0  0  0  0  0  0  0  0  0
    2.2269   -0.2380   -0.1960 C   0  0  0  0  0  0  0  0  0  0  0  0
    3.7218   -0.2599   -0.1532 C   0  0  0  0  0  0  0  0  0  0  0  0
    1.5078   -0.6401    1.0513 C   0  0  0  0  0  0  0  0  0  0  0  0
    2.1380   -0.8965    2.0757 O   0  0  0  0  0  0  0  0  0  0  0  0
    0.0046   -0.8032    0.9878 C   0  0  0  0  0  0  0  0  0  0  0  0
  1  2  1  0
  2  3  2  0
  2  4  1  0
  4  5  1  0
  5  6  1  0
  6  7  2  0
  7  8  1  0
  7  9  1  0
  9 10  2  0
  9 11  1  0
 11  4  1  0
M  END
>  <target>  (218) 
-2.06

$$$$

     RDKit          3D

 18 18  0  0  0  0  0  0  0  0999 V2000
   -0.1283   -2.5456    0.2196 C   0  0  0  0  0  0  0  0  0  0  0  0
   -0.1235   -1.4633    1.2797 C   0  0  0  0  0  0  0  0  0  0  0  0
   -1.1314   -0.5171    0.9573 O   0  0  0  0  0  0  0  0  0  0  0  0
   -1.2275    0.8604    1.8192 P   0  0  0  0  0  0  0  0  0  0  0  0
   -1.6244    0.5660    3.7050 S   0  0  0  0  0  0  0  0  0  0  0  0
   -2.4554    1.5687    1.0184 O   0  0  0  0  0  0  0  0  0  0  0  0
   -3.7379    0.9610    1.0341 C   0  0  0  0  0  0  0  0  0  0  0  0
   -4.5300    1.4863   -0.1458 C   0  0  0  0  0  0  0  0  0  0  0  0
    0.4592    2.0020    1.3105 S   0  0  0  0  0  0  0  0  0  0  0  0
    0.2363    2.2031   -0.4681 C   0  0  0  0  0  0  0  0  0  0  0  0
    1.8090    2.5741   -1.3036 S   0  0  0  0  0  0  0  0  0  0  0  0
    2.5194    0.9394   -1.3263 C   0  0  0  0  0  0  0  0  0  0  0  0
    3.4793    0.5808   -0.3744 C   0  0  0  0  0  0  0  0  0  0  0  0
    4.0268   -0.7047   -0.3763 C   0  0  0  0  0  0  0  0  0  0  0  0
    3.6216   -1.6273   -1.3384 C   0  0  0  0  0  0  0  0  0  0  0  0
    4.2836   -3.2144   -1.3339 Cl  0  0  0  0  0  0  0  0  0  0  0  0
    2.6796   -1.2734   -2.3026 C   0  0  0  0  0  0  0  0  0  0  0  0
    2.1296    0.0112   -2.2974 C   0  0  0  0  0  0  0  0  0  0  0  0
  1  2  1  0
  2  3  1  0
  3  4  1  0
  4  5  2  0
  4  6  1  0
  6  7  1  0
  7  8  1  0
  4  9  1  0
  9 10  1  0
 10 11  1  0
 11 12  1  0
 12 13  2  0
 13 14  1  0
 14 15  2  0
 15 16  1  0
 15 17  1  0
 17 18  2  0
 18 12  1  0
M  END
>  <target>  (219) 
-5.736000000000001

$$$$

     RDKit          3D

 42 48  0  0  0  0  0  0  0  0999 V2000
   -8.3546    1.2424    0.7282 C   0  0  0  0  0  0  0  0  0  0  0  0
   -7.2076    0.4721    1.0562 O   0  0  0  0  0  0  0  0  0  0  0  0
   -6.0067    0.8377    0.5118 C   0  0  0  0  0  0  0  0  0  0  0  0
   -4.9320    0.0763    0.9929 C   0  0  0  0  0  0  0  0  0  0  0  0
   -3.6127    0.2876    0.5528 C   0  0  0  0  0  0  0  0  0  0  0  0
   -3.3734    1.3039   -0.3873 C   0  0  0  0  0  0  0  0  0  0  0  0
   -4.4325    2.0678   -0.8871 C   0  0  0  0  0  0  0  0  0  0  0  0
   -4.3250    3.0743   -1.8196 O   0  0  0  0  0  0  0  0  0  0  0  0
   -3.0353    3.2807   -2.3868 C   0  0  0  0  0  0  0  0  0  0  0  0
   -5.7440    1.8318   -0.4319 C   0  0  0  0  0  0  0  0  0  0  0  0
   -6.7441    2.6122   -0.9592 O   0  0  0  0  0  0  0  0  0  0  0  0
   -2.4791   -0.5722    1.1257 C   0  0  0  0  0  0  0  0  0  0  0  0
   -1.7900    0.1962    2.2723 C   0  0  0  0  0  0  0  0  0  0  0  0
   -0.3174   -0.0948    2.4794 C   0  0  0  0  0  0  0  0  0  0  0  0
   -0.3402   -1.3708    3.2925 C   0  0  0  0  0  0  0  0  0  0  0  0
   -1.4833   -1.2175    4.1400 O   0  0  0  0  0  0  0  0  0  0  0  0
   -2.3416   -0.3117    3.5814 C   0  0  0  0  0  0  0  0  0  0  0  0
   -3.4158   -0.0014    4.0691 O   0  0  0  0  0  0  0  0  0  0  0  0
    0.5167   -0.1291    1.2098 C   0  0  0  0  0  0  0  0  0  0  0  0
    1.7914   -0.6736    1.5589 O   0  0  0  0  0  0  0  0  0  0  0  0
    2.8853    0.2382    1.3813 C   0  0  0  0  0  0  0  0  0  0  0  0
    2.9896    0.5646    0.0008 O   0  0  0  0  0  0  0  0  0  0  0  0
    4.1346    1.3360   -0.3721 C   0  0  0  0  0  0  0  0  0  0  0  0
    4.1180    1.4580   -1.8978 C   0  0  0  0  0  0  0  0  0  0  0  0
    4.3648    0.1932   -2.5152 O   0  0  0  0  0  0  0  0  0  0  0  0
    5.5953   -0.3728   -2.0822 C   0  0  0  0  0  0  0  0  0  0  0  0
    5.7575   -1.7210   -2.7621 C   0  0  0  0  0  0  0  0  0  0  0  0
    5.6074   -0.5900   -0.6718 O   0  0  0  0  0  0  0  0  0  0  0  0
    5.4352    0.6461    0.0391 C   0  0  0  0  0  0  0  0  0  0  0  0
    5.4036    0.3310    1.5308 C   0  0  0  0  0  0  0  0  0  0  0  0
    6.5696   -0.4237    1.9036 O   0  0  0  0  0  0  0  0  0  0  0  0
    4.1523   -0.4600    1.9129 C   0  0  0  0  0  0  0  0  0  0  0  0
    4.1117   -0.5707    3.3480 O   0  0  0  0  0  0  0  0  0  0  0  0
   -0.1316   -0.9454    0.1076 C   0  0  0  0  0  0  0  0  0  0  0  0
    0.6764   -1.4816   -0.9177 C   0  0  0  0  0  0  0  0  0  0  0  0
    0.0849   -2.1922   -1.9355 C   0  0  0  0  0  0  0  0  0  0  0  0
    0.7319   -2.7628   -2.9859 O   0  0  0  0  0  0  0  0  0  0  0  0
   -0.3792   -3.3617   -3.6876 C   0  0  0  0  0  0  0  0  0  0  0  0
   -1.6536   -3.1219   -3.0544 O   0  0  0  0  0  0  0  0  0  0  0  0
   -1.2689   -2.3918   -1.9746 C   0  0  0  0  0  0  0  0  0  0  0  0
   -2.1026   -1.8825   -1.0026 C   0  0  0  0  0  0  0  0  0  0  0  0
   -1.5403   -1.1256    0.0521 C   0  0  0  0  0  0  0  0  0  0  0  0
  1  2  1  0
  2  3  1  0
  3  4  2  0
  4  5  1  0
  5  6  2  0
  6  7  1  0
  7  8  1  0
  8  9  1  0
  7 10  2  0
 10 11  1  0
  5 12  1  0
 12 13  1  0
 13 14  1  0
 14 15  1  0
 15 16  1  0
 16 17  1  0
 17 18  2  0
 14 19  1  0
 19 20  1  0
 20 21  1  0
 21 22  1  0
 22 23  1  0
 23 24  1  0
 24 25  1  0
 25 26  1  0
 26 27  1  0
 26 28  1  0
 28 29  1  0
 29 30  1  0
 30 31  1  0
 30 32  1  0
 32 33  1  0
 19 34  1  0
 34 35  2  0
 35 36  1  0
 36 37  1  0
 37 38  1  0
 38 39  1  0
 39 40  1  0
 40 41  1  0
 41 42  2  0
 10  3  1  0
 17 13  1  0
 29 23  1  0
 32 21  1  0
 40 36  2  0
 42 12  1  0
 42 34  1  0
M  END
>  <target>  (220) 
-3.571

$$$$

     RDKit          3D

 20 24  0  0  0  0  0  0  0  0999 V2000
   -2.9345    2.2257    0.7589 C   0  0  0  0  0  0  0  0  0  0  0  0
   -3.5785    1.0258    0.5137 C   0  0  0  0  0  0  0  0  0  0  0  0
   -2.8412   -0.1124    0.1818 C   0  0  0  0  0  0  0  0  0  0  0  0
   -3.5228   -1.3068   -0.0593 C   0  0  0  0  0  0  0  0  0  0  0  0
   -2.8229   -2.4535   -0.3905 C   0  0  0  0  0  0  0  0  0  0  0  0
   -1.4333   -2.4101   -0.4822 C   0  0  0  0  0  0  0  0  0  0  0  0
   -0.6860   -1.2264   -0.2486 C   0  0  0  0  0  0  0  0  0  0  0  0
    0.7431   -1.1699   -0.3400 C   0  0  0  0  0  0  0  0  0  0  0  0
    1.5455   -2.2923   -0.6728 C   0  0  0  0  0  0  0  0  0  0  0  0
    2.9345   -2.2257   -0.7589 C   0  0  0  0  0  0  0  0  0  0  0  0
    3.5785   -1.0258   -0.5137 C   0  0  0  0  0  0  0  0  0  0  0  0
    2.8412    0.1124   -0.1818 C   0  0  0  0  0  0  0  0  0  0  0  0
    3.5228    1.3068    0.0593 C   0  0  0  0  0  0  0  0  0  0  0  0
    2.8229    2.4535    0.3904 C   0  0  0  0  0  0  0  0  0  0  0  0
    1.4333    2.4101    0.4822 C   0  0  0  0  0  0  0  0  0  0  0  0
    0.6860    1.2264    0.2486 C   0  0  0  0  0  0  0  0  0  0  0  0
   -0.7431    1.1699    0.3400 C   0  0  0  0  0  0  0  0  0  0  0  0
   -1.5455    2.2923    0.6728 C   0  0  0  0  0  0  0  0  0  0  0  0
   -1.4153   -0.0560    0.0906 C   0  0  0  0  0  0  0  0  0  0  0  0
    1.4153    0.0560   -0.0906 C   0  0  0  0  0  0  0  0  0  0  0  0
  1  2  2  0
  2  3  1  0
  3  4  2  0
  4  5  1  0
  5  6  2  0
  6  7  1  0
  7  8  1  0
  8  9  1  0
  9 10  2  0
 10 11  1  0
 11 12  2  0
 12 13  1  0
 13 14  2  0
 14 15  1  0
 15 16  2  0
 16 17  1  0
 17 18  2  0
 17 19  1  0
 16 20  1  0
 18  1  1  0
 19  3  1  0
 19  7  2  0
 20  8  2  0
 20 12  1  0
M  END
>  <target>  (221) 
-8.804

$$$$

     RDKit          3D

 13 13  0  0  0  0  0  0  0  0999 V2000
   -2.1629    1.4460    0.1922 C   0  0  0  0  0  0  0  0  0  0  0  0
   -0.8322    0.7537    0.0754 C   0  0  0  0  0  0  0  0  0  0  0  0
    0.3364    1.5313    0.0238 C   0  0  0  0  0  0  0  0  0  0  0  0
    1.5955    0.9311   -0.0880 C   0  0  0  0  0  0  0  0  0  0  0  0
    1.7006   -0.4651   -0.1445 C   0  0  0  0  0  0  0  0  0  0  0  0
    0.5578   -1.2684   -0.0835 C   0  0  0  0  0  0  0  0  0  0  0  0
   -0.6949   -0.6486    0.0351 C   0  0  0  0  0  0  0  0  0  0  0  0
   -1.8638   -1.5185    0.1111 N   0  0  0  0  0  0  0  0  0  0  0  0
   -2.6538   -1.3335    1.0453 O   0  0  0  0  0  0  0  0  0  0  0  0
   -1.9671   -2.3939   -0.7580 O   0  0  0  0  0  0  0  0  0  0  0  0
    3.0244   -1.0898   -0.2622 N   0  0  0  0  0  0  0  0  0  0  0  0
    3.0790   -2.3266   -0.2302 O   0  0  0  0  0  0  0  0  0  0  0  0
    4.0047   -0.3427   -0.3839 O   0  0  0  0  0  0  0  0  0  0  0  0
  1  2  1  0
  2  3  2  0
  3  4  1  0
  4  5  2  0
  5  6  1  0
  6  7  2  0
  7  8  1  0
  8  9  1  0
  8 10  2  0
  5 11  1  0
 11 12  1  0
 11 13  2  0
  7  2  1  0
M  CHG  4   8   1   9  -1  11   1  12  -1
M  END
>  <target>  (222) 
-2.82

$$$$

     RDKit          3D

 11 12  0  0  0  0  0  0  0  0999 V2000
    1.2015   -1.3417   -0.2379 C   0  0  0  0  0  0  0  0  0  0  0  0
    2.3969   -0.6280   -0.1569 C   0  0  0  0  0  0  0  0  0  0  0  0
    4.0453   -1.5369   -0.3387 Br  0  0  0  0  0  0  0  0  0  0  0  0
    2.3884    0.7470    0.0566 C   0  0  0  0  0  0  0  0  0  0  0  0
    1.1711    1.4176    0.1908 C   0  0  0  0  0  0  0  0  0  0  0  0
   -0.0449    0.7192    0.1126 C   0  0  0  0  0  0  0  0  0  0  0  0
   -1.2768    1.3795    0.2456 C   0  0  0  0  0  0  0  0  0  0  0  0
   -2.4774    0.6722    0.1657 C   0  0  0  0  0  0  0  0  0  0  0  0
   -2.4623   -0.7029   -0.0479 C   0  0  0  0  0  0  0  0  0  0  0  0
   -1.2465   -1.3751   -0.1823 C   0  0  0  0  0  0  0  0  0  0  0  0
   -0.0293   -0.6791   -0.1046 C   0  0  0  0  0  0  0  0  0  0  0  0
  1  2  2  0
  2  3  1  0
  2  4  1  0
  4  5  2  0
  5  6  1  0
  6  7  2  0
  7  8  1  0
  8  9  2  0
  9 10  1  0
 10 11  2  0
 11  1  1  0
 11  6  1  0
M  END
>  <target>  (223) 
-4.4

$$$$

     RDKit          3D

 16 16  0  0  0  0  0  0  0  0999 V2000
   -4.8474    1.2592   -2.0137 C   0  0  0  0  0  0  0  0  0  0  0  0
   -4.4017    0.4260   -0.9312 N   0  0  0  0  0  0  0  0  0  0  0  0
   -3.1395   -0.1007   -0.8938 C   0  0  0  0  0  0  0  0  0  0  0  0
   -2.3215   -0.0061   -1.7986 O   0  0  0  0  0  0  0  0  0  0  0  0
   -2.9512   -0.7354    0.3236 O   0  0  0  0  0  0  0  0  0  0  0  0
   -1.6789   -1.2901    0.4946 C   0  0  0  0  0  0  0  0  0  0  0  0
   -1.5640   -2.6787    0.5083 C   0  0  0  0  0  0  0  0  0  0  0  0
   -0.3156   -3.2551    0.7336 C   0  0  0  0  0  0  0  0  0  0  0  0
    0.7990   -2.4391    0.9479 C   0  0  0  0  0  0  0  0  0  0  0  0
    0.6771   -1.0452    0.9358 C   0  0  0  0  0  0  0  0  0  0  0  0
    1.8030   -0.2426    1.1659 N   0  0  0  0  0  0  0  0  0  0  0  0
    2.3830    0.2211    0.1072 C   0  0  0  0  0  0  0  0  0  0  0  0
    3.4987    1.0288    0.0794 N   0  0  0  0  0  0  0  0  0  0  0  0
    3.8482    1.7378   -1.1405 C   0  0  0  0  0  0  0  0  0  0  0  0
    3.9794    1.6156    1.3225 C   0  0  0  0  0  0  0  0  0  0  0  0
   -0.5771   -0.4685    0.7300 C   0  0  0  0  0  0  0  0  0  0  0  0
  1  2  1  0
  2  3  1  0
  3  4  2  0
  3  5  1  0
  5  6  1  0
  6  7  2  0
  7  8  1  0
  8  9  2  0
  9 10  1  0
 10 11  1  0
 11 12  2  3
 12 13  1  0
 13 14  1  0
 13 15  1  0
 10 16  2  0
 16  6  1  0
M  END
>  <target>  (224) 
-2.34

$$$$

     RDKit          3D

 12 13  0  0  0  0  0  0  0  0999 V2000
    3.2048    0.5413    0.1780 C   0  0  0  0  0  0  0  0  0  0  0  0
    2.6041   -0.7498    0.1502 O   0  0  0  0  0  0  0  0  0  0  0  0
    1.2344   -0.7085    0.0243 C   0  0  0  0  0  0  0  0  0  0  0  0
    0.5527   -1.9093   -0.0128 C   0  0  0  0  0  0  0  0  0  0  0  0
   -0.7961   -1.9829   -0.1344 N   0  0  0  0  0  0  0  0  0  0  0  0
   -1.4723   -0.8325   -0.2201 C   0  0  0  0  0  0  0  0  0  0  0  0
   -2.7978   -0.8957   -0.3398 N   0  0  0  0  0  0  0  0  0  0  0  0
   -3.4599    0.2621   -0.4244 C   0  0  0  0  0  0  0  0  0  0  0  0
   -2.9107    1.4796   -0.3997 N   0  0  0  0  0  0  0  0  0  0  0  0
   -1.5665    1.4977   -0.2774 C   0  0  0  0  0  0  0  0  0  0  0  0
   -0.7643    0.3837   -0.1809 C   0  0  0  0  0  0  0  0  0  0  0  0
    0.5877    0.4689   -0.0593 N   0  0  0  0  0  0  0  0  0  0  0  0
  1  2  1  0
  2  3  1  0
  3  4  2  0
  4  5  1  0
  5  6  2  0
  6  7  1  0
  7  8  2  0
  8  9  1  0
  9 10  2  0
 10 11  1  0
 11 12  2  0
 11  6  1  0
 12  3  1  0
M  END
>  <target>  (225) 
-1.139

$$$$

     RDKit          3D

 20 23  0  0  0  0  0  0  0  0999 V2000
    4.0263   -1.0021   -0.2336 C   0  0  0  0  0  0  0  0  0  0  0  0
    2.9196   -0.0116   -0.4842 C   0  0  0  0  0  0  0  0  0  0  0  0
    3.2353    1.1736   -1.1517 C   0  0  0  0  0  0  0  0  0  0  0  0
    2.2317    2.0873   -1.3777 C   0  0  0  0  0  0  0  0  0  0  0  0
    0.9604    1.9033   -0.9809 N   0  0  0  0  0  0  0  0  0  0  0  0
    0.6175    0.7517   -0.3326 C   0  0  0  0  0  0  0  0  0  0  0  0
   -0.7197    0.6470    0.1491 N   0  0  0  0  0  0  0  0  0  0  0  0
   -1.4746    1.9334    0.1931 C   0  0  0  0  0  0  0  0  0  0  0  0
   -2.4213    2.2459    1.3270 C   0  0  0  0  0  0  0  0  0  0  0  0
   -1.1360    3.0040    1.2021 C   0  0  0  0  0  0  0  0  0  0  0  0
   -1.5153   -0.5021   -0.0988 C   0  0  0  0  0  0  0  0  0  0  0  0
   -2.7588   -0.3097   -0.6396 N   0  0  0  0  0  0  0  0  0  0  0  0
   -3.5614   -1.3702   -0.8684 C   0  0  0  0  0  0  0  0  0  0  0  0
   -3.2064   -2.6654   -0.5719 C   0  0  0  0  0  0  0  0  0  0  0  0
   -1.9572   -2.8700   -0.0054 C   0  0  0  0  0  0  0  0  0  0  0  0
   -1.0935   -1.7832    0.2333 C   0  0  0  0  0  0  0  0  0  0  0  0
    0.1757   -2.0950    0.9040 C   0  0  0  0  0  0  0  0  0  0  0  0
    0.2378   -3.0875    1.6331 O   0  0  0  0  0  0  0  0  0  0  0  0
    1.3309   -1.4134    0.6559 N   0  0  0  0  0  0  0  0  0  0  0  0
    1.5832   -0.2391   -0.0726 C   0  0  0  0  0  0  0  0  0  0  0  0
  1  2  1  0
  2  3  2  0
  3  4  1  0
  4  5  2  0
  5  6  1  0
  6  7  1  0
  7  8  1  0
  8  9  1  0
  9 10  1  0
  7 11  1  0
 11 12  2  0
 12 13  1  0
 13 14  2  0
 14 15  1  0
 15 16  2  0
 16 17  1  0
 17 18  2  0
 17 19  1  0
 19 20  1  0
 10  8  1  0
 16 11  1  0
 20  2  1  0
 20  6  2  0
M  END
>  <target>  (226) 
-3.19

$$$$

     RDKit          3D

 18 18  0  0  0  0  0  0  0  0999 V2000
    2.8456    2.8109    2.4195 C   0  0  0  0  0  0  0  0  0  0  0  0
    3.1145    1.9801    1.1814 C   0  0  0  0  0  0  0  0  0  0  0  0
    1.9212    1.3054    0.8240 O   0  0  0  0  0  0  0  0  0  0  0  0
    2.0066    0.1043   -0.2602 P   0  0  0  0  0  0  0  0  0  0  0  0
    2.7937    0.5121   -1.9907 S   0  0  0  0  0  0  0  0  0  0  0  0
    2.8179   -1.0034    0.6099 O   0  0  0  0  0  0  0  0  0  0  0  0
    2.9356   -2.3172    0.0890 C   0  0  0  0  0  0  0  0  0  0  0  0
    3.4366   -3.2283    1.1910 C   0  0  0  0  0  0  0  0  0  0  0  0
    0.5192   -0.5090   -0.2276 O   0  0  0  0  0  0  0  0  0  0  0  0
   -0.5451    0.1883   -0.6165 C   0  0  0  0  0  0  0  0  0  0  0  0
   -0.5844    1.4833   -1.0255 N   0  0  0  0  0  0  0  0  0  0  0  0
   -1.8560    1.6494   -1.2857 C   0  0  0  0  0  0  0  0  0  0  0  0
   -2.5839    3.0765   -1.8444 Cl  0  0  0  0  0  0  0  0  0  0  0  0
   -2.5546    0.5044   -1.0449 N   0  0  0  0  0  0  0  0  0  0  0  0
   -1.7123   -0.4603   -0.6038 N   0  0  0  0  0  0  0  0  0  0  0  0
   -3.9754    0.2264   -1.1930 C   0  0  0  0  0  0  0  0  0  0  0  0
   -4.6194   -0.1098    0.1522 C   0  0  0  0  0  0  0  0  0  0  0  0
   -4.2231   -0.8809   -2.2179 C   0  0  0  0  0  0  0  0  0  0  0  0
  1  2  1  0
  2  3  1  0
  3  4  1  0
  4  5  2  0
  4  6  1  0
  6  7  1  0
  7  8  1  0
  4  9  1  0
  9 10  1  0
 10 11  1  0
 11 12  2  0
 12 13  1  0
 12 14  1  0
 14 15  1  0
 14 16  1  0
 16 17  1  0
 16 18  1  0
 15 10  2  0
M  END
>  <target>  (227) 
-3.658

$$$$

     RDKit          3D

  5  4  0  0  0  0  0  0  0  0999 V2000
    1.1863   -0.8085    0.1332 C   0  0  0  0  0  0  0  0  0  0  0  0
    0.3169    0.4162    0.0340 C   0  0  0  0  0  0  0  0  0  0  0  0
    0.8564    1.6452    0.0907 C   0  0  0  0  0  0  0  0  0  0  0  0
   -1.1209    0.2640   -0.1246 C   0  0  0  0  0  0  0  0  0  0  0  0
   -1.7906   -0.8935   -0.1958 C   0  0  0  0  0  0  0  0  0  0  0  0
  1  2  1  0
  2  3  2  0
  2  4  1  0
  4  5  2  0
M  END
>  <target>  (228) 
-2.03

$$$$

     RDKit          3D

 11 10  0  0  0  0  0  0  0  0999 V2000
    4.0862    0.5711   -0.6969 C   0  0  0  0  0  0  0  0  0  0  0  0
    2.7933    0.1050   -0.0810 C   0  0  0  0  0  0  0  0  0  0  0  0
    2.8805   -1.2282    0.6097 C   0  0  0  0  0  0  0  0  0  0  0  0
    1.6757    0.8512   -0.1792 C   0  0  0  0  0  0  0  0  0  0  0  0
    0.3192    0.5514    0.4043 C   0  0  0  0  0  0  0  0  0  0  0  0
   -0.6342    0.0088   -0.6681 C   0  0  0  0  0  0  0  0  0  0  0  0
   -2.0458   -0.3220   -0.1421 C   0  0  0  0  0  0  0  0  0  0  0  0
   -1.9252   -1.2957    0.8946 O   0  0  0  0  0  0  0  0  0  0  0  0
   -2.8792   -0.9521   -1.2658 C   0  0  0  0  0  0  0  0  0  0  0  0
   -2.7567    0.9105    0.3779 C   0  0  0  0  0  0  0  0  0  0  0  0
   -3.1021    1.1680    1.6482 C   0  0  0  0  0  0  0  0  0  0  0  0
  1  2  1  0
  2  3  1  0
  2  4  2  3
  4  5  1  0
  5  6  1  0
  6  7  1  0
  7  8  1  0
  7  9  1  0
  7 10  1  0
 10 11  2  0
M  END
>  <target>  (229) 
-1.99

$$$$

     RDKit          3D

 16 16  0  0  0  0  0  0  0  0999 V2000
   -3.9531   -1.4505    1.7508 C   0  0  0  0  0  0  0  0  0  0  0  0
   -2.8195   -1.1389    0.9660 O   0  0  0  0  0  0  0  0  0  0  0  0
   -2.6312    0.3879    0.4570 P   0  0  0  0  0  0  0  0  0  0  0  0
   -2.4755    1.7546    1.8280 S   0  0  0  0  0  0  0  0  0  0  0  0
   -3.9074    0.5325   -0.5342 O   0  0  0  0  0  0  0  0  0  0  0  0
   -3.9973    1.6865   -1.3463 C   0  0  0  0  0  0  0  0  0  0  0  0
   -1.4234    0.2508   -0.6068 O   0  0  0  0  0  0  0  0  0  0  0  0
   -0.1315   -0.0900   -0.3246 C   0  0  0  0  0  0  0  0  0  0  0  0
    0.3084   -0.5743    0.9004 C   0  0  0  0  0  0  0  0  0  0  0  0
    1.6582   -0.8918    1.0759 C   0  0  0  0  0  0  0  0  0  0  0  0
    2.5803   -0.7281    0.0326 C   0  0  0  0  0  0  0  0  0  0  0  0
    4.2898   -1.1603    0.3396 S   0  0  0  0  0  0  0  0  0  0  0  0
    4.7705    0.2873    1.3172 C   0  0  0  0  0  0  0  0  0  0  0  0
    2.1369   -0.2559   -1.2153 C   0  0  0  0  0  0  0  0  0  0  0  0
    3.0689   -0.0767   -2.3825 C   0  0  0  0  0  0  0  0  0  0  0  0
    0.7762    0.0598   -1.3758 C   0  0  0  0  0  0  0  0  0  0  0  0
  1  2  1  0
  2  3  1  0
  3  4  2  0
  3  5  1  0
  5  6  1  0
  3  7  1  0
  7  8  1  0
  8  9  2  0
  9 10  1  0
 10 11  2  0
 11 12  1  0
 12 13  1  0
 11 14  1  0
 14 15  1  0
 14 16  2  0
 16  8  1  0
M  END
>  <target>  (230) 
-4.57

$$$$

     RDKit          3D

  7  7  0  0  0  0  0  0  0  0999 V2000
   -2.3152    1.0949   -0.4790 O   0  0  0  0  0  0  0  0  0  0  0  0
   -1.2122    0.4342    0.1317 C   0  0  0  0  0  0  0  0  0  0  0  0
   -0.0408    1.4110    0.2099 C   0  0  0  0  0  0  0  0  0  0  0  0
    1.2168    0.7400    0.7522 C   0  0  0  0  0  0  0  0  0  0  0  0
    1.5789   -0.5066   -0.0513 C   0  0  0  0  0  0  0  0  0  0  0  0
    0.4093   -1.4842   -0.1350 C   0  0  0  0  0  0  0  0  0  0  0  0
   -0.8476   -0.8108   -0.6758 C   0  0  0  0  0  0  0  0  0  0  0  0
  1  2  1  0
  2  3  1  0
  3  4  1  0
  4  5  1  0
  5  6  1  0
  6  7  1  0
  7  2  1  0
M  END
>  <target>  (231) 
-0.44

$$$$

     RDKit          3D

 13 13  0  0  0  0  0  0  0  0999 V2000
   -0.2916   -1.5116   -1.7754 O   0  0  0  0  0  0  0  0  0  0  0  0
   -0.5058   -1.0091   -0.6759 C   0  0  0  0  0  0  0  0  0  0  0  0
   -0.9033   -1.7874    0.3775 N   0  0  0  0  0  0  0  0  0  0  0  0
   -1.8237   -1.3525    1.2800 C   0  0  0  0  0  0  0  0  0  0  0  0
   -2.5724   -2.1335    1.8578 O   0  0  0  0  0  0  0  0  0  0  0  0
   -1.9455   -0.0053    1.4382 N   0  0  0  0  0  0  0  0  0  0  0  0
   -1.5411    0.9048    0.4973 C   0  0  0  0  0  0  0  0  0  0  0  0
   -2.0900    2.0001    0.4153 O   0  0  0  0  0  0  0  0  0  0  0  0
   -0.3637    0.4731   -0.3638 C   0  0  0  0  0  0  0  0  0  0  0  0
   -0.3442    1.2954   -1.6599 C   0  0  0  0  0  0  0  0  0  0  0  0
    0.9148    0.7098    0.4815 C   0  0  0  0  0  0  0  0  0  0  0  0
    2.2070    0.3281   -0.1905 C   0  0  0  0  0  0  0  0  0  0  0  0
    3.0069   -0.6592    0.2316 C   0  0  0  0  0  0  0  0  0  0  0  0
  1  2  2  0
  2  3  1  0
  3  4  1  0
  4  5  2  0
  4  6  1  0
  6  7  1  0
  7  8  2  0
  7  9  1  0
  9 10  1  0
  9 11  1  0
 11 12  1  0
 12 13  2  0
  9  2  1  0
M  END
>  <target>  (232) 
-1.16

$$$$

     RDKit          3D

 21 24  0  0  0  0  0  0  0  0999 V2000
   -3.2609   -1.0292    1.2645 C   0  0  0  0  0  0  0  0  0  0  0  0
   -2.9481   -0.6173   -0.1857 C   0  0  0  0  0  0  0  0  0  0  0  0
   -2.1490   -1.6971   -0.9078 C   0  0  0  0  0  0  0  0  0  0  0  0
   -0.7131   -1.7802   -0.3589 C   0  0  0  0  0  0  0  0  0  0  0  0
    0.0221   -0.4128   -0.3400 C   0  0  0  0  0  0  0  0  0  0  0  0
   -0.8399    0.7114    0.3265 C   0  0  0  0  0  0  0  0  0  0  0  0
   -0.1500    2.0793    0.2362 C   0  0  0  0  0  0  0  0  0  0  0  0
    1.2828    2.0488    0.7634 C   0  0  0  0  0  0  0  0  0  0  0  0
    2.0993    0.9582    0.0610 C   0  0  0  0  0  0  0  0  0  0  0  0
    3.5836    1.0230    0.4566 C   0  0  0  0  0  0  0  0  0  0  0  0
    4.4109   -0.0001   -0.3217 C   0  0  0  0  0  0  0  0  0  0  0  0
    4.4230    0.3830   -1.6969 O   0  0  0  0  0  0  0  0  0  0  0  0
    3.8432   -1.4116   -0.1967 C   0  0  0  0  0  0  0  0  0  0  0  0
    2.3517   -1.4764   -0.5476 C   0  0  0  0  0  0  0  0  0  0  0  0
    1.4793   -0.4639    0.2477 C   0  0  0  0  0  0  0  0  0  0  0  0
    1.4598   -0.9001    1.7347 C   0  0  0  0  0  0  0  0  0  0  0  0
   -2.2072    0.7237   -0.3618 C   0  0  0  0  0  0  0  0  0  0  0  0
   -3.2430    1.7765    0.0160 C   0  0  0  0  0  0  0  0  0  0  0  0
   -4.5053    1.2795   -0.7040 C   0  0  0  0  0  0  0  0  0  0  0  0
   -4.2668   -0.2169   -0.8187 C   0  0  0  0  0  0  0  0  0  0  0  0
   -5.0561   -0.9968   -1.3346 O   0  0  0  0  0  0  0  0  0  0  0  0
  1  2  1  0
  2  3  1  0
  3  4  1  0
  4  5  1  0
  5  6  1  0
  6  7  1  0
  7  8  1  0
  8  9  1  0
  9 10  1  0
 10 11  1  0
 11 12  1  0
 11 13  1  0
 13 14  1  0
 14 15  1  0
 15 16  1  0
  6 17  1  0
 17 18  1  0
 18 19  1  0
 19 20  1  0
 20 21  2  0
 15  5  1  0
 15  9  1  0
 17  2  1  0
 20  2  1  0
M  END
>  <target>  (233) 
-4.16

$$$$

     RDKit          3D

 12 11  0  0  0  0  0  0  0  0999 V2000
    3.1201    0.8139   -0.8471 O   0  0  0  0  0  0  0  0  0  0  0  0
    2.7617   -0.5711   -0.8967 C   0  0  0  0  0  0  0  0  0  0  0  0
    1.6033   -0.8455    0.0726 C   0  0  0  0  0  0  0  0  0  0  0  0
    2.0672   -0.6011    1.4121 O   0  0  0  0  0  0  0  0  0  0  0  0
    0.3727    0.0508   -0.1976 C   0  0  0  0  0  0  0  0  0  0  0  0
    0.6981    1.4269    0.0547 O   0  0  0  0  0  0  0  0  0  0  0  0
   -0.8366   -0.3525    0.6788 C   0  0  0  0  0  0  0  0  0  0  0  0
   -0.5367   -0.3358    2.0932 O   0  0  0  0  0  0  0  0  0  0  0  0
   -2.0612    0.5667    0.5007 C   0  0  0  0  0  0  0  0  0  0  0  0
   -3.1316    0.0141    1.2992 O   0  0  0  0  0  0  0  0  0  0  0  0
   -2.5643    0.6711   -0.9374 C   0  0  0  0  0  0  0  0  0  0  0  0
   -2.8437   -0.6323   -1.4513 O   0  0  0  0  0  0  0  0  0  0  0  0
  1  2  1  0
  2  3  1  0
  3  4  1  0
  3  5  1  0
  5  6  1  0
  5  7  1  0
  7  8  1  0
  7  9  1  0
  9 10  1  0
  9 11  1  0
 11 12  1  0
M  END
>  <target>  (234) 
0.06

$$$$

     RDKit          3D

 13 14  0  0  0  0  0  0  0  0999 V2000
    4.3892   -0.2701    0.0542 C   0  0  0  0  0  0  0  0  0  0  0  0
    2.8913   -0.2010    0.0709 C   0  0  0  0  0  0  0  0  0  0  0  0
    2.1407   -0.8236   -0.9307 C   0  0  0  0  0  0  0  0  0  0  0  0
    0.7449   -0.7326   -0.9313 C   0  0  0  0  0  0  0  0  0  0  0  0
    0.0643   -0.0086    0.0601 C   0  0  0  0  0  0  0  0  0  0  0  0
    0.8297    0.6250    1.0516 C   0  0  0  0  0  0  0  0  0  0  0  0
    2.2256    0.5348    1.0557 C   0  0  0  0  0  0  0  0  0  0  0  0
   -1.4049    0.0866    0.0574 C   0  0  0  0  0  0  0  0  0  0  0  0
   -2.2051   -1.0676    0.0200 C   0  0  0  0  0  0  0  0  0  0  0  0
   -3.5998   -0.9785    0.0179 C   0  0  0  0  0  0  0  0  0  0  0  0
   -4.2188    0.2684    0.0519 C   0  0  0  0  0  0  0  0  0  0  0  0
   -3.4447    1.4253    0.0886 C   0  0  0  0  0  0  0  0  0  0  0  0
   -2.0500    1.3342    0.0919 C   0  0  0  0  0  0  0  0  0  0  0  0
  1  2  1  0
  2  3  2  0
  3  4  1  0
  4  5  2  0
  5  6  1  0
  6  7  2  0
  5  8  1  0
  8  9  2  0
  9 10  1  0
 10 11  2  0
 11 12  1  0
 12 13  2  0
  7  2  1  0
 13  8  1  0
M  END
>  <target>  (235) 
-4.62

$$$$

     RDKit          3D

 14 14  0  0  0  0  0  0  0  0999 V2000
    4.7909   -0.6035    0.4904 C   0  0  0  0  0  0  0  0  0  0  0  0
    3.3609   -0.1352    0.2711 C   0  0  0  0  0  0  0  0  0  0  0  0
    2.7086   -1.0132   -0.6840 N   0  0  0  0  0  0  0  0  0  0  0  0
    1.4114   -0.6487   -1.0239 C   0  0  0  0  0  0  0  0  0  0  0  0
    1.0534   -0.9144   -2.2650 N   0  0  0  0  0  0  0  0  0  0  0  0
   -0.1953   -0.5671   -2.5350 C   0  0  0  0  0  0  0  0  0  0  0  0
   -0.7320   -0.8885   -4.1264 Cl  0  0  0  0  0  0  0  0  0  0  0  0
   -1.0806   -0.0034   -1.7299 N   0  0  0  0  0  0  0  0  0  0  0  0
   -0.6152    0.2239   -0.5164 C   0  0  0  0  0  0  0  0  0  0  0  0
   -1.4138    0.8231    0.4431 N   0  0  0  0  0  0  0  0  0  0  0  0
   -2.8512    0.5922    0.3760 C   0  0  0  0  0  0  0  0  0  0  0  0
   -3.1964   -0.8226    0.8409 C   0  0  0  0  0  0  0  0  0  0  0  0
   -3.5387    1.6215    1.2740 C   0  0  0  0  0  0  0  0  0  0  0  0
    0.6156   -0.0809   -0.1229 N   0  0  0  0  0  0  0  0  0  0  0  0
  1  2  1  0
  2  3  1  0
  3  4  1  0
  4  5  2  0
  5  6  1  0
  6  7  1  0
  6  8  2  0
  8  9  1  0
  9 10  1  0
 10 11  1  0
 11 12  1  0
 11 13  1  0
  9 14  2  0
 14  4  1  0
M  END
>  <target>  (236) 
-3.85

$$$$

     RDKit          3D

 10 10  0  0  0  0  0  0  0  0999 V2000
   -2.5399    1.1410    0.2575 N   0  0  0  0  0  0  0  0  0  0  0  0
   -2.4918    0.0349   -0.5092 C   0  0  0  0  0  0  0  0  0  0  0  0
   -3.8559   -0.4755   -1.3124 S   0  0  0  0  0  0  0  0  0  0  0  0
   -1.3445   -0.6799   -0.5824 N   0  0  0  0  0  0  0  0  0  0  0  0
   -0.0187   -0.3674   -0.2192 C   0  0  0  0  0  0  0  0  0  0  0  0
    0.4410    0.9257    0.0398 C   0  0  0  0  0  0  0  0  0  0  0  0
    1.7796    1.1484    0.3799 C   0  0  0  0  0  0  0  0  0  0  0  0
    2.6723    0.0819    0.4511 C   0  0  0  0  0  0  0  0  0  0  0  0
    2.2310   -1.2076    0.1687 C   0  0  0  0  0  0  0  0  0  0  0  0
    0.8944   -1.4289   -0.1732 C   0  0  0  0  0  0  0  0  0  0  0  0
  1  2  1  0
  2  3  2  0
  2  4  1  0
  4  5  1  0
  5  6  2  0
  6  7  1  0
  7  8  2  0
  8  9  1  0
  9 10  2  0
 10  5  1  0
M  END
>  <target>  (237) 
-1.77

$$$$

     RDKit          3D

  8  7  0  0  0  0  0  0  0  0999 V2000
   -3.7956    0.2060   -0.4736 C   0  0  0  0  0  0  0  0  0  0  0  0
   -2.5419   -0.4558    0.0744 C   0  0  0  0  0  0  0  0  0  0  0  0
   -1.2793    0.2559   -0.4028 C   0  0  0  0  0  0  0  0  0  0  0  0
   -0.0085   -0.3864    0.1314 C   0  0  0  0  0  0  0  0  0  0  0  0
   -0.0300   -1.3723    0.8665 O   0  0  0  0  0  0  0  0  0  0  0  0
    1.2909    0.2727   -0.3049 C   0  0  0  0  0  0  0  0  0  0  0  0
    2.5227   -0.4228    0.2673 C   0  0  0  0  0  0  0  0  0  0  0  0
    3.8057    0.2555   -0.1840 C   0  0  0  0  0  0  0  0  0  0  0  0
  1  2  1  0
  2  3  1  0
  3  4  1  0
  4  5  2  0
  4  6  1  0
  6  7  1  0
  7  8  1  0
M  END
>  <target>  (238) 
-1.3

$$$$

     RDKit          3D

  7  6  0  0  0  0  0  0  0  0999 V2000
    2.1539   -0.4997    0.1944 C   0  0  0  0  0  0  0  0  0  0  0  0
    0.8720   -0.6941   -0.5807 C   0  0  0  0  0  0  0  0  0  0  0  0
    0.8685   -1.4110   -1.5842 O   0  0  0  0  0  0  0  0  0  0  0  0
   -0.3957    0.0379   -0.0992 C   0  0  0  0  0  0  0  0  0  0  0  0
   -0.5693   -0.1142    1.4174 C   0  0  0  0  0  0  0  0  0  0  0  0
   -1.6292   -0.5628   -0.7954 C   0  0  0  0  0  0  0  0  0  0  0  0
   -0.2838    1.5212   -0.4727 C   0  0  0  0  0  0  0  0  0  0  0  0
  1  2  1  0
  2  3  2  0
  2  4  1  0
  4  5  1  0
  4  6  1  0
  4  7  1  0
M  END
>  <target>  (239) 
-0.72

$$$$

     RDKit          3D

  8  8  0  0  0  0  0  0  0  0999 V2000
    2.5012   -0.3858    0.2077 O   0  0  0  0  0  0  0  0  0  0  0  0
    1.1568   -0.1913    0.0968 C   0  0  0  0  0  0  0  0  0  0  0  0
    0.3390   -1.3169    0.0988 C   0  0  0  0  0  0  0  0  0  0  0  0
   -1.0440   -1.1667   -0.0125 C   0  0  0  0  0  0  0  0  0  0  0  0
   -1.5922    0.1105   -0.1247 C   0  0  0  0  0  0  0  0  0  0  0  0
   -3.2969    0.3000   -0.2621 Cl  0  0  0  0  0  0  0  0  0  0  0  0
   -0.7685    1.2372   -0.1263 C   0  0  0  0  0  0  0  0  0  0  0  0
    0.6158    1.0869   -0.0149 C   0  0  0  0  0  0  0  0  0  0  0  0
  1  2  1  0
  2  3  2  0
  3  4  1  0
  4  5  2  0
  5  6  1  0
  5  7  1  0
  7  8  2  0
  8  2  1  0
M  END
>  <target>  (240) 
-0.7

$$$$

     RDKit          3D

  7  7  0  0  0  0  0  0  0  0999 V2000
    2.3417    0.1496    1.3772 O   0  0  0  0  0  0  0  0  0  0  0  0
    1.3974    0.0744    0.5925 C   0  0  0  0  0  0  0  0  0  0  0  0
    0.8638   -1.2593    0.1195 C   0  0  0  0  0  0  0  0  0  0  0  0
   -0.6585   -1.2685    0.1460 C   0  0  0  0  0  0  0  0  0  0  0  0
   -1.2452   -0.0708   -0.5980 C   0  0  0  0  0  0  0  0  0  0  0  0
   -0.7229    1.2414   -0.0170 C   0  0  0  0  0  0  0  0  0  0  0  0
    0.7979    1.3067   -0.0471 C   0  0  0  0  0  0  0  0  0  0  0  0
  1  2  2  0
  2  3  1  0
  3  4  1  0
  4  5  1  0
  5  6  1  0
  6  7  1  0
  7  2  1  0
M  END
>  <target>  (241) 
-0.6

$$$$

     RDKit          3D

  8  8  0  0  0  0  0  0  0  0999 V2000
    2.4716   -0.5121    0.0342 C   0  0  0  0  0  0  0  0  0  0  0  0
    1.0605   -0.0044    0.0259 C   0  0  0  0  0  0  0  0  0  0  0  0
    0.7964    1.3532   -0.1805 C   0  0  0  0  0  0  0  0  0  0  0  0
   -0.5193    1.8079   -0.2532 C   0  0  0  0  0  0  0  0  0  0  0  0
   -1.5788    0.9098   -0.1108 C   0  0  0  0  0  0  0  0  0  0  0  0
   -1.3374   -0.4417    0.1433 C   0  0  0  0  0  0  0  0  0  0  0  0
   -2.3983   -1.3562    0.1621 N   0  0  0  0  0  0  0  0  0  0  0  0
   -0.0150   -0.8966    0.1533 C   0  0  0  0  0  0  0  0  0  0  0  0
  1  2  1  0
  2  3  2  0
  3  4  1  0
  4  5  2  0
  5  6  1  0
  6  7  1  0
  6  8  2  0
  8  2  1  0
M  END
>  <target>  (242) 
-0.85

$$$$

     RDKit          3D

  6  5  0  0  0  0  0  0  0  0999 V2000
   -0.9800    1.4997   -0.7605 Cl  0  0  0  0  0  0  0  0  0  0  0  0
   -0.3877    0.0031    0.0056 C   0  0  0  0  0  0  0  0  0  0  0  0
   -1.0051   -1.4089   -0.8902 Cl  0  0  0  0  0  0  0  0  0  0  0  0
   -0.9569   -0.0673    1.6934 Cl  0  0  0  0  0  0  0  0  0  0  0  0
    1.0829   -0.0086   -0.0157 C   0  0  0  0  0  0  0  0  0  0  0  0
    2.2467   -0.0179   -0.0326 N   0  0  0  0  0  0  0  0  0  0  0  0
  1  2  1  0
  2  3  1  0
  2  4  1  0
  2  5  1  0
  5  6  3  0
M  END
>  <target>  (243) 
-2.168

$$$$

     RDKit          3D

 20 21  0  0  0  0  0  0  0  0999 V2000
   -5.3004    0.4987   -0.4864 C   0  0  0  0  0  0  0  0  0  0  0  0
   -4.2808   -0.3122   -1.1160 N   0  0  0  0  0  0  0  0  0  0  0  0
   -2.9187   -0.3103   -0.8315 C   0  0  0  0  0  0  0  0  0  0  0  0
   -2.2972    0.8508   -0.1602 C   0  0  0  0  0  0  0  0  0  0  0  0
   -1.0590    0.9921    0.1718 N   0  0  0  0  0  0  0  0  0  0  0  0
   -0.1759   -0.0284   -0.1210 N   0  0  0  0  0  0  0  0  0  0  0  0
    1.1777    0.2467    0.3053 C   0  0  0  0  0  0  0  0  0  0  0  0
    1.4808    1.4697    0.9370 C   0  0  0  0  0  0  0  0  0  0  0  0
    2.7739    1.7811    1.3694 C   0  0  0  0  0  0  0  0  0  0  0  0
    3.8079    0.8723    1.1813 C   0  0  0  0  0  0  0  0  0  0  0  0
    3.5549   -0.3531    0.5570 C   0  0  0  0  0  0  0  0  0  0  0  0
    2.2425   -0.6516    0.1291 C   0  0  0  0  0  0  0  0  0  0  0  0
    4.6574   -1.3635    0.3492 C   0  0  0  0  0  0  0  0  0  0  0  0
    5.8922   -0.8984    0.6945 F   0  0  0  0  0  0  0  0  0  0  0  0
    4.7656   -1.7673   -0.9468 F   0  0  0  0  0  0  0  0  0  0  0  0
    4.4713   -2.4956    1.0826 F   0  0  0  0  0  0  0  0  0  0  0  0
   -0.5826   -1.2020   -0.7769 C   0  0  0  0  0  0  0  0  0  0  0  0
    0.1433   -2.1484   -1.0813 O   0  0  0  0  0  0  0  0  0  0  0  0
   -2.0382   -1.2789   -1.1194 C   0  0  0  0  0  0  0  0  0  0  0  0
   -2.5750   -2.7285   -1.9182 Cl  0  0  0  0  0  0  0  0  0  0  0  0
  1  2  1  0
  2  3  1  0
  3  4  1  0
  4  5  2  0
  5  6  1  0
  6  7  1  0
  7  8  2  0
  8  9  1  0
  9 10  2  0
 10 11  1  0
 11 12  2  0
 11 13  1  0
 13 14  1  0
 13 15  1  0
 13 16  1  0
  6 17  1  0
 17 18  2  0
 17 19  1  0
 19 20  1  0
 12  7  1  0
 19  3  2  0
M  END
>  <target>  (244) 
-4.046

$$$$

     RDKit          3D

 11 10  0  0  0  0  0  0  0  0999 V2000
   -5.4151   -0.1610   -0.4313 C   0  0  0  0  0  0  0  0  0  0  0  0
   -4.1733   -0.5061    0.3751 C   0  0  0  0  0  0  0  0  0  0  0  0
   -2.9069    0.0362   -0.2871 C   0  0  0  0  0  0  0  0  0  0  0  0
   -1.6601   -0.3131    0.5272 C   0  0  0  0  0  0  0  0  0  0  0  0
   -0.3928    0.2296   -0.1354 C   0  0  0  0  0  0  0  0  0  0  0  0
    0.8540   -0.1197    0.6788 C   0  0  0  0  0  0  0  0  0  0  0  0
    2.1209    0.4228    0.0167 C   0  0  0  0  0  0  0  0  0  0  0  0
    3.3631    0.0726    0.8275 C   0  0  0  0  0  0  0  0  0  0  0  0
    4.6058    0.6667    0.1998 C   0  0  0  0  0  0  0  0  0  0  0  0
    5.0902    1.7202    0.6131 O   0  0  0  0  0  0  0  0  0  0  0  0
    5.2035   -0.0632   -0.9743 C   0  0  0  0  0  0  0  0  0  0  0  0
  1  2  1  0
  2  3  1  0
  3  4  1  0
  4  5  1  0
  5  6  1  0
  6  7  1  0
  7  8  1  0
  8  9  1  0
  9 10  2  0
  9 11  1  0
M  END
>  <target>  (245) 
-3.3

$$$$

     RDKit          3D

 16 16  0  0  0  0  0  0  0  0999 V2000
   -2.1319   -2.1775   -0.4698 C   0  0  0  0  0  0  0  0  0  0  0  0
   -1.8851   -0.8274   -1.1277 C   0  0  0  0  0  0  0  0  0  0  0  0
   -2.0101    0.2589   -0.1663 N   0  0  0  0  0  0  0  0  0  0  0  0
   -3.3152    0.8619    0.0665 C   0  0  0  0  0  0  0  0  0  0  0  0
   -3.4412    2.1757   -0.6904 C   0  0  0  0  0  0  0  0  0  0  0  0
   -0.9431    0.5878    0.6449 C   0  0  0  0  0  0  0  0  0  0  0  0
   -1.1023    1.5301    1.5595 N   0  0  0  0  0  0  0  0  0  0  0  0
   -0.0203    1.7768    2.2795 C   0  0  0  0  0  0  0  0  0  0  0  0
   -0.1808    2.9947    3.4698 Cl  0  0  0  0  0  0  0  0  0  0  0  0
    1.1718    1.2118    2.1903 N   0  0  0  0  0  0  0  0  0  0  0  0
    1.2329    0.2860    1.2558 C   0  0  0  0  0  0  0  0  0  0  0  0
    2.4556   -0.3514    1.1265 N   0  0  0  0  0  0  0  0  0  0  0  0
    2.8289   -0.8471   -0.1913 C   0  0  0  0  0  0  0  0  0  0  0  0
    4.0037   -1.8109   -0.0199 C   0  0  0  0  0  0  0  0  0  0  0  0
    3.2267    0.3057   -1.1131 C   0  0  0  0  0  0  0  0  0  0  0  0
    0.2151   -0.0467    0.4695 N   0  0  0  0  0  0  0  0  0  0  0  0
  1  2  1  0
  2  3  1  0
  3  4  1  0
  4  5  1  0
  3  6  1  0
  6  7  2  0
  7  8  1  0
  8  9  1  0
  8 10  2  0
 10 11  1  0
 11 12  1  0
 12 13  1  0
 13 14  1  0
 13 15  1  0
 11 16  2  0
 16  6  1  0
M  END
>  <target>  (246) 
-3.785

$$$$

     RDKit          3D

 12 12  0  0  0  0  0  0  0  0999 V2000
    4.0067    1.2483    0.2827 C   0  0  0  0  0  0  0  0  0  0  0  0
    3.2846   -0.0664    0.0610 C   0  0  0  0  0  0  0  0  0  0  0  0
    1.8750    0.1848    0.1108 O   0  0  0  0  0  0  0  0  0  0  0  0
    1.1074   -0.9185   -0.0729 C   0  0  0  0  0  0  0  0  0  0  0  0
    1.5205   -2.0504   -0.2704 O   0  0  0  0  0  0  0  0  0  0  0  0
   -0.3378   -0.5697   -0.0055 C   0  0  0  0  0  0  0  0  0  0  0  0
   -0.7886    0.7339    0.2318 C   0  0  0  0  0  0  0  0  0  0  0  0
   -2.1610    1.0035    0.2871 C   0  0  0  0  0  0  0  0  0  0  0  0
   -3.0996   -0.0076    0.0666 C   0  0  0  0  0  0  0  0  0  0  0  0
   -4.4632    0.2466    0.2433 N   0  0  0  0  0  0  0  0  0  0  0  0
   -2.6450   -1.3163   -0.1106 C   0  0  0  0  0  0  0  0  0  0  0  0
   -1.2756   -1.5959   -0.1683 C   0  0  0  0  0  0  0  0  0  0  0  0
  1  2  1  0
  2  3  1  0
  3  4  1  0
  4  5  2  0
  4  6  1  0
  6  7  2  0
  7  8  1  0
  8  9  2  0
  9 10  1  0
  9 11  1  0
 11 12  2  0
 12  6  1  0
M  END
>  <target>  (247) 
-2.616

$$$$

     RDKit          3D

  9  9  0  0  0  0  0  0  0  0999 V2000
    3.0346   -0.7779   -0.0089 Cl  0  0  0  0  0  0  0  0  0  0  0  0
    1.3742   -0.3293   -0.0038 C   0  0  0  0  0  0  0  0  0  0  0  0
    1.0239    1.0198    0.0120 C   0  0  0  0  0  0  0  0  0  0  0  0
   -0.3239    1.3859    0.0162 C   0  0  0  0  0  0  0  0  0  0  0  0
   -1.3183    0.4023    0.0046 C   0  0  0  0  0  0  0  0  0  0  0  0
   -2.9645    0.9245    0.0107 Cl  0  0  0  0  0  0  0  0  0  0  0  0
   -0.9585   -0.9516   -0.0112 C   0  0  0  0  0  0  0  0  0  0  0  0
   -2.1324   -2.2197   -0.0261 Cl  0  0  0  0  0  0  0  0  0  0  0  0
    0.3910   -1.3168   -0.0154 C   0  0  0  0  0  0  0  0  0  0  0  0
  1  2  1  0
  2  3  2  0
  3  4  1  0
  4  5  2  0
  5  6  1  0
  5  7  1  0
  7  8  1  0
  7  9  2  0
  9  2  1  0
M  END
>  <target>  (248) 
-3.59

$$$$

     RDKit          3D

 23 26  0  0  0  0  0  0  0  0999 V2000
   -3.8840   -1.2670    0.9544 C   0  0  0  0  0  0  0  0  0  0  0  0
   -3.2244   -1.2202   -0.3718 C   0  0  0  0  0  0  0  0  0  0  0  0
   -3.5518   -1.9904   -1.3899 N   0  0  0  0  0  0  0  0  0  0  0  0
   -2.6405   -1.7928   -2.3889 N   0  0  0  0  0  0  0  0  0  0  0  0
   -1.7693   -0.9003   -1.9705 C   0  0  0  0  0  0  0  0  0  0  0  0
   -0.6310   -0.3369   -2.7285 C   0  0  0  0  0  0  0  0  0  0  0  0
    0.6221   -0.5896   -2.0292 N   0  0  0  0  0  0  0  0  0  0  0  0
    0.8308   -0.0715   -0.8669 C   0  0  0  0  0  0  0  0  0  0  0  0
    2.1320   -0.4101   -0.2160 C   0  0  0  0  0  0  0  0  0  0  0  0
    3.2989   -0.1708   -0.9576 C   0  0  0  0  0  0  0  0  0  0  0  0
    4.5503   -0.4469   -0.4061 C   0  0  0  0  0  0  0  0  0  0  0  0
    4.6426   -0.9729    0.8811 C   0  0  0  0  0  0  0  0  0  0  0  0
    3.4834   -1.2355    1.6145 C   0  0  0  0  0  0  0  0  0  0  0  0
    2.2246   -0.9627    1.0686 C   0  0  0  0  0  0  0  0  0  0  0  0
    0.8407   -1.3775    2.0166 Cl  0  0  0  0  0  0  0  0  0  0  0  0
   -0.1059    0.8487   -0.1442 C   0  0  0  0  0  0  0  0  0  0  0  0
    0.4633    1.9604    0.5024 C   0  0  0  0  0  0  0  0  0  0  0  0
   -0.3253    2.7956    1.2890 C   0  0  0  0  0  0  0  0  0  0  0  0
    0.3866    4.1462    2.0798 Cl  0  0  0  0  0  0  0  0  0  0  0  0
   -1.6842    2.5443    1.4389 C   0  0  0  0  0  0  0  0  0  0  0  0
   -2.2670    1.4538    0.7886 C   0  0  0  0  0  0  0  0  0  0  0  0
   -1.4871    0.6005   -0.0102 C   0  0  0  0  0  0  0  0  0  0  0  0
   -2.1163   -0.4598   -0.7116 N   0  0  0  0  0  0  0  0  0  0  0  0
  1  2  1  0
  2  3  2  0
  3  4  1  0
  4  5  2  0
  5  6  1  0
  6  7  1  0
  7  8  2  0
  8  9  1  0
  9 10  2  0
 10 11  1  0
 11 12  2  0
 12 13  1  0
 13 14  2  0
 14 15  1  0
  8 16  1  0
 16 17  2  0
 17 18  1  0
 18 19  1  0
 18 20  2  0
 20 21  1  0
 21 22  2  0
 22 23  1  0
 14  9  1  0
 22 16  1  0
 23  2  1  0
 23  5  1  0
M  END
>  <target>  (249) 
-4.09

$$$$

     RDKit          3D

  8  8  0  0  0  0  0  0  0  0999 V2000
   -1.2448    2.0790    0.4532 O   0  0  0  0  0  0  0  0  0  0  0  0
   -0.4171    1.0114    0.2533 C   0  0  0  0  0  0  0  0  0  0  0  0
    0.9358    1.1413    0.5310 C   0  0  0  0  0  0  0  0  0  0  0  0
    1.7799    0.0490    0.3260 C   0  0  0  0  0  0  0  0  0  0  0  0
    1.2629   -1.1593   -0.1536 C   0  0  0  0  0  0  0  0  0  0  0  0
   -0.1013   -1.2831   -0.4313 C   0  0  0  0  0  0  0  0  0  0  0  0
   -0.9355   -0.1903   -0.2244 C   0  0  0  0  0  0  0  0  0  0  0  0
   -2.2786   -0.2479   -0.4770 O   0  0  0  0  0  0  0  0  0  0  0  0
  1  2  1  0
  2  3  2  0
  3  4  1  0
  4  5  2  0
  5  6  1  0
  6  7  2  0
  7  8  1  0
  7  2  1  0
M  END
>  <target>  (250) 
0.62

$$$$

     RDKit          3D

 19 21  0  0  0  0  0  0  0  0999 V2000
    2.5129   -1.8671    1.5312 C   0  0  0  0  0  0  0  0  0  0  0  0
    1.5398   -1.9801    0.3576 C   0  0  0  0  0  0  0  0  0  0  0  0
    0.6520   -0.8031    0.2807 N   0  0  0  0  0  0  0  0  0  0  0  0
   -0.5940   -1.0943   -0.3332 C   0  0  0  0  0  0  0  0  0  0  0  0
   -0.7053   -2.2469   -1.0546 N   0  0  0  0  0  0  0  0  0  0  0  0
   -1.8832   -2.5549   -1.6300 C   0  0  0  0  0  0  0  0  0  0  0  0
   -3.0058   -1.7691   -1.5209 C   0  0  0  0  0  0  0  0  0  0  0  0
   -2.9083   -0.6015   -0.7736 C   0  0  0  0  0  0  0  0  0  0  0  0
   -1.6957   -0.2278   -0.1632 C   0  0  0  0  0  0  0  0  0  0  0  0
   -1.6606    0.9498    0.6553 N   0  0  0  0  0  0  0  0  0  0  0  0
   -2.9028    1.3699    1.3000 C   0  0  0  0  0  0  0  0  0  0  0  0
   -0.5556    1.7863    0.8511 C   0  0  0  0  0  0  0  0  0  0  0  0
   -0.6119    2.7768    1.5881 O   0  0  0  0  0  0  0  0  0  0  0  0
    0.7004    1.6206    0.0973 C   0  0  0  0  0  0  0  0  0  0  0  0
    1.3660    2.7882   -0.3149 C   0  0  0  0  0  0  0  0  0  0  0  0
    2.6007    2.7017   -0.9409 C   0  0  0  0  0  0  0  0  0  0  0  0
    3.1382    1.4453   -1.1150 C   0  0  0  0  0  0  0  0  0  0  0  0
    2.5264    0.3090   -0.7157 N   0  0  0  0  0  0  0  0  0  0  0  0
    1.3041    0.3858   -0.1148 C   0  0  0  0  0  0  0  0  0  0  0  0
  1  2  1  0
  2  3  1  0
  3  4  1  0
  4  5  2  0
  5  6  1  0
  6  7  2  0
  7  8  1  0
  8  9  2  0
  9 10  1  0
 10 11  1  0
 10 12  1  0
 12 13  2  0
 12 14  1  0
 14 15  2  0
 15 16  1  0
 16 17  2  0
 17 18  1  0
 18 19  2  0
  9  4  1  0
 19  3  1  0
 19 14  1  0
M  END
>  <target>  (251) 
-2.62

$$$$

     RDKit          3D

  3  2  0  0  0  0  0  0  0  0999 V2000
    1.3699    0.0291    0.1698 C   0  0  0  0  0  0  0  0  0  0  0  0
    0.0447   -1.1986    0.0857 S   0  0  0  0  0  0  0  0  0  0  0  0
   -1.3680   -0.0817    0.2506 C   0  0  0  0  0  0  0  0  0  0  0  0
  1  2  1  0
  2  3  1  0
M  END
>  <target>  (252) 
-0.45

$$$$

     RDKit          3D

  8  8  0  0  0  0  0  0  0  0999 V2000
   -2.2054   -0.1242   -0.0206 C   0  0  0  0  0  0  0  0  0  0  0  0
   -0.7047   -0.0477   -0.0061 C   0  0  0  0  0  0  0  0  0  0  0  0
    0.0405   -1.2354    0.0774 C   0  0  0  0  0  0  0  0  0  0  0  0
    1.4365   -1.2060    0.0935 C   0  0  0  0  0  0  0  0  0  0  0  0
    2.1093    0.0107    0.0264 C   0  0  0  0  0  0  0  0  0  0  0  0
    1.3860    1.1995   -0.0569 C   0  0  0  0  0  0  0  0  0  0  0  0
   -0.0125    1.1721   -0.0731 C   0  0  0  0  0  0  0  0  0  0  0  0
   -0.9198    2.8374   -0.1885 Br  0  0  0  0  0  0  0  0  0  0  0  0
  1  2  1  0
  2  3  2  0
  3  4  1  0
  4  5  2  0
  5  6  1  0
  6  7  2  0
  7  8  1  0
  7  2  1  0
M  END
>  <target>  (253) 
-2.23

$$$$

     RDKit          3D

  6  5  0  0  0  0  0  0  0  0999 V2000
   -1.9679    0.7013   -0.1061 C   0  0  0  0  0  0  0  0  0  0  0  0
   -0.9073   -0.1998    0.4960 C   0  0  0  0  0  0  0  0  0  0  0  0
    0.3615    0.1729   -0.0541 O   0  0  0  0  0  0  0  0  0  0  0  0
    1.3967   -0.5626    0.4075 C   0  0  0  0  0  0  0  0  0  0  0  0
    1.3372   -1.4740    1.2162 O   0  0  0  0  0  0  0  0  0  0  0  0
    2.5472   -0.1434   -0.1626 N   0  0  0  0  0  0  0  0  0  0  0  0
  1  2  1  0
  2  3  1  0
  3  4  1  0
  4  5  2  0
  4  6  1  0
M  END
>  <target>  (254) 
0.85

$$$$

     RDKit          3D

 28 31  0  0  0  0  0  0  0  0999 V2000
    5.6907    1.8437   -0.4421 C   0  0  0  0  0  0  0  0  0  0  0  0
    4.9498    0.6682   -1.0000 C   0  0  0  0  0  0  0  0  0  0  0  0
    5.3467   -0.0302   -1.9185 O   0  0  0  0  0  0  0  0  0  0  0  0
    3.7859    0.4861   -0.3200 O   0  0  0  0  0  0  0  0  0  0  0  0
    2.8885   -0.5662   -0.7496 C   0  0  0  0  0  0  0  0  0  0  0  0
    2.2258   -0.1193   -2.0755 C   0  0  0  0  0  0  0  0  0  0  0  0
    1.0421    0.7760   -1.6951 C   0  0  0  0  0  0  0  0  0  0  0  0
    0.9187    0.7171   -0.1644 C   0  0  0  0  0  0  0  0  0  0  0  0
   -0.5179    0.8216    0.3928 C   0  0  0  0  0  0  0  0  0  0  0  0
   -1.2155    2.0782   -0.0497 C   0  0  0  0  0  0  0  0  0  0  0  0
   -2.5284    2.1682   -0.3319 C   0  0  0  0  0  0  0  0  0  0  0  0
   -3.0947    3.4988   -0.7679 C   0  0  0  0  0  0  0  0  0  0  0  0
   -3.4281    1.0097   -0.1839 C   0  0  0  0  0  0  0  0  0  0  0  0
   -4.6931    1.0462   -0.6461 C   0  0  0  0  0  0  0  0  0  0  0  0
   -5.6397   -0.0818   -0.4899 C   0  0  0  0  0  0  0  0  0  0  0  0
   -6.7968    0.0477   -0.8854 O   0  0  0  0  0  0  0  0  0  0  0  0
   -5.1725   -1.3302    0.2056 C   0  0  0  0  0  0  0  0  0  0  0  0
   -3.6657   -1.4994    0.0790 C   0  0  0  0  0  0  0  0  0  0  0  0
   -2.8571   -0.2446    0.5166 C   0  0  0  0  0  0  0  0  0  0  0  0
   -2.9969   -0.0666    2.0474 C   0  0  0  0  0  0  0  0  0  0  0  0
   -1.3613   -0.4330    0.0794 C   0  0  0  0  0  0  0  0  0  0  0  0
   -0.6499   -1.6692    0.6559 C   0  0  0  0  0  0  0  0  0  0  0  0
    0.7534   -1.8245    0.0585 C   0  0  0  0  0  0  0  0  0  0  0  0
    1.6665   -0.5823    0.2466 C   0  0  0  0  0  0  0  0  0  0  0  0
    2.1053   -0.4929    1.7241 C   0  0  0  0  0  0  0  0  0  0  0  0
    3.5536   -1.9678   -0.8684 C   0  0  0  0  0  0  0  0  0  0  0  0
    4.5203   -2.3934    0.2090 C   0  0  0  0  0  0  0  0  0  0  0  0
    3.2408   -2.7717   -1.7515 O   0  0  0  0  0  0  0  0  0  0  0  0
  1  2  1  0
  2  3  2  0
  2  4  1  0
  4  5  1  0
  5  6  1  0
  6  7  1  0
  7  8  1  0
  8  9  1  0
  9 10  1  0
 10 11  2  0
 11 12  1  0
 11 13  1  0
 13 14  2  0
 14 15  1  0
 15 16  2  0
 15 17  1  0
 17 18  1  0
 18 19  1  0
 19 20  1  0
 19 21  1  0
 21 22  1  0
 22 23  1  0
 23 24  1  0
 24 25  1  0
  5 26  1  0
 26 27  1  0
 26 28  2  0
 19 13  1  0
 21  9  1  0
 24  5  1  0
 24  8  1  0
M  END
>  <target>  (255) 
-5.35

$$$$

     RDKit          3D

  8  7  0  0  0  0  0  0  0  0999 V2000
    2.3867    1.1687    0.0444 C   0  0  0  0  0  0  0  0  0  0  0  0
    1.2586    0.1822    0.3784 C   0  0  0  0  0  0  0  0  0  0  0  0
    1.7756   -1.2487    0.2199 C   0  0  0  0  0  0  0  0  0  0  0  0
    0.0112    0.4650   -0.4949 C   0  0  0  0  0  0  0  0  0  0  0  0
   -0.4193    1.8117   -0.2755 O   0  0  0  0  0  0  0  0  0  0  0  0
   -1.1834   -0.5001   -0.2921 C   0  0  0  0  0  0  0  0  0  0  0  0
   -2.3318   -0.1470   -1.2463 C   0  0  0  0  0  0  0  0  0  0  0  0
   -1.7140   -0.5205    1.1444 C   0  0  0  0  0  0  0  0  0  0  0  0
  1  2  1  0
  2  3  1  0
  2  4  1  0
  4  5  1  0
  4  6  1  0
  6  7  1  0
  6  8  1  0
M  END
>  <target>  (256) 
-1.22

$$$$

     RDKit          3D

 10 11  0  0  0  0  0  0  0  0999 V2000
   -2.3648   -0.9036   -0.0258 C   0  0  0  0  0  0  0  0  0  0  0  0
   -2.4849    0.4803    0.0611 C   0  0  0  0  0  0  0  0  0  0  0  0
   -1.3408    1.2792    0.0959 C   0  0  0  0  0  0  0  0  0  0  0  0
   -0.0610    0.7030    0.0442 C   0  0  0  0  0  0  0  0  0  0  0  0
    1.1002    1.4922    0.0781 C   0  0  0  0  0  0  0  0  0  0  0  0
    2.3648    0.9036    0.0258 C   0  0  0  0  0  0  0  0  0  0  0  0
    2.4849   -0.4803   -0.0611 C   0  0  0  0  0  0  0  0  0  0  0  0
    1.3408   -1.2792   -0.0959 C   0  0  0  0  0  0  0  0  0  0  0  0
    0.0610   -0.7030   -0.0442 C   0  0  0  0  0  0  0  0  0  0  0  0
   -1.1002   -1.4922   -0.0781 C   0  0  0  0  0  0  0  0  0  0  0  0
  1  2  2  0
  2  3  1  0
  3  4  2  0
  4  5  1  0
  5  6  2  0
  6  7  1  0
  7  8  2  0
  8  9  1  0
  9 10  2  0
 10  1  1  0
  9  4  1  0
M  END
>  <target>  (257) 
-3.6

$$$$

     RDKit          3D

  9  9  0  0  0  0  0  0  0  0999 V2000
    3.2980    0.5301   -0.2836 C   0  0  0  0  0  0  0  0  0  0  0  0
    1.8135    0.8514   -0.2035 C   0  0  0  0  0  0  0  0  0  0  0  0
    1.0525   -0.3870   -0.0953 N   0  0  0  0  0  0  0  0  0  0  0  0
   -0.3359   -0.3299    0.0790 C   0  0  0  0  0  0  0  0  0  0  0  0
   -1.1204    0.7745   -0.2732 C   0  0  0  0  0  0  0  0  0  0  0  0
   -2.5137    0.7463   -0.1405 C   0  0  0  0  0  0  0  0  0  0  0  0
   -3.1500   -0.4018    0.3211 C   0  0  0  0  0  0  0  0  0  0  0  0
   -2.3936   -1.5252    0.6366 C   0  0  0  0  0  0  0  0  0  0  0  0
   -1.0023   -1.4900    0.5024 C   0  0  0  0  0  0  0  0  0  0  0  0
  1  2  1  0
  2  3  1  0
  3  4  1  0
  4  5  2  0
  5  6  1  0
  6  7  2  0
  7  8  1  0
  8  9  2  0
  9  4  1  0
M  END
>  <target>  (258) 
-1.7

$$$$

     RDKit          3D

 19 21  0  0  0  0  0  0  0  0999 V2000
   -0.0780    3.3909    2.4156 O   0  0  0  0  0  0  0  0  0  0  0  0
    0.0351    2.7004    1.4190 C   0  0  0  0  0  0  0  0  0  0  0  0
    0.1864    3.1471    0.1566 N   0  0  0  0  0  0  0  0  0  0  0  0
    0.1469    2.1101   -0.7252 C   0  0  0  0  0  0  0  0  0  0  0  0
    0.1794    2.2581   -1.9411 O   0  0  0  0  0  0  0  0  0  0  0  0
    0.0358    0.7677    0.0669 C   0  0  0  0  0  0  0  0  0  0  0  0
    0.0033    1.3336    1.4077 N   0  0  0  0  0  0  0  0  0  0  0  0
    1.2892   -0.0827   -0.1858 C   0  0  0  0  0  0  0  0  0  0  0  0
    1.4833   -0.6775   -1.4482 C   0  0  0  0  0  0  0  0  0  0  0  0
    2.6105   -1.4577   -1.7126 C   0  0  0  0  0  0  0  0  0  0  0  0
    3.5678   -1.6572   -0.7226 C   0  0  0  0  0  0  0  0  0  0  0  0
    3.4001   -1.0749    0.5307 C   0  0  0  0  0  0  0  0  0  0  0  0
    2.2727   -0.2936    0.7982 C   0  0  0  0  0  0  0  0  0  0  0  0
   -1.2715   -0.0078   -0.1538 C   0  0  0  0  0  0  0  0  0  0  0  0
   -2.2782    0.4238   -1.0344 C   0  0  0  0  0  0  0  0  0  0  0  0
   -3.4588   -0.3089   -1.1913 C   0  0  0  0  0  0  0  0  0  0  0  0
   -3.6578   -1.4838   -0.4721 C   0  0  0  0  0  0  0  0  0  0  0  0
   -2.6765   -1.9314    0.4060 C   0  0  0  0  0  0  0  0  0  0  0  0
   -1.4968   -1.2015    0.5649 C   0  0  0  0  0  0  0  0  0  0  0  0
  1  2  2  0
  2  3  1  0
  3  4  1  0
  4  5  2  0
  4  6  1  0
  6  7  1  0
  6  8  1  0
  8  9  2  0
  9 10  1  0
 10 11  2  0
 11 12  1  0
 12 13  2  0
  6 14  1  0
 14 15  2  0
 15 16  1  0
 16 17  2  0
 17 18  1  0
 18 19  2  0
  7  2  1  0
 13  8  1  0
 19 14  1  0
M  END
>  <target>  (259) 
-4.0969999999999995

$$$$

     RDKit          3D

 20 23  0  0  0  0  0  0  0  0999 V2000
   -0.3883    2.4637   -0.8506 C   0  0  0  0  0  0  0  0  0  0  0  0
    0.2440    1.1609   -0.3943 C   0  0  0  0  0  0  0  0  0  0  0  0
    1.6688    1.1382   -0.2720 C   0  0  0  0  0  0  0  0  0  0  0  0
    2.4547    2.3219   -0.2437 C   0  0  0  0  0  0  0  0  0  0  0  0
    3.8422    2.3029   -0.1119 C   0  0  0  0  0  0  0  0  0  0  0  0
    4.4918    1.0912    0.0036 C   0  0  0  0  0  0  0  0  0  0  0  0
    3.7472   -0.0875   -0.0233 C   0  0  0  0  0  0  0  0  0  0  0  0
    2.3334   -0.0997   -0.1720 C   0  0  0  0  0  0  0  0  0  0  0  0
    1.5640   -1.2945   -0.2420 C   0  0  0  0  0  0  0  0  0  0  0  0
    2.2764   -2.6347   -0.3241 C   0  0  0  0  0  0  0  0  0  0  0  0
    0.1337   -1.2524   -0.1864 C   0  0  0  0  0  0  0  0  0  0  0  0
   -0.6190   -2.4440   -0.1406 C   0  0  0  0  0  0  0  0  0  0  0  0
   -2.0063   -2.4600   -0.0719 C   0  0  0  0  0  0  0  0  0  0  0  0
   -2.7146   -1.2766    0.0437 C   0  0  0  0  0  0  0  0  0  0  0  0
   -4.1121   -1.3476    0.1927 C   0  0  0  0  0  0  0  0  0  0  0  0
   -4.8707   -0.2046    0.4063 C   0  0  0  0  0  0  0  0  0  0  0  0
   -4.2289    1.0155    0.5008 C   0  0  0  0  0  0  0  0  0  0  0  0
   -2.8391    1.0859    0.3390 C   0  0  0  0  0  0  0  0  0  0  0  0
   -2.0207   -0.0406    0.0470 C   0  0  0  0  0  0  0  0  0  0  0  0
   -0.5652   -0.0130   -0.1739 C   0  0  0  0  0  0  0  0  0  0  0  0
  1  2  1  0
  2  3  2  0
  3  4  1  0
  4  5  2  0
  5  6  1  0
  6  7  2  0
  7  8  1  0
  8  9  2  0
  9 10  1  0
  9 11  1  0
 11 12  2  0
 12 13  1  0
 13 14  2  0
 14 15  1  0
 15 16  2  0
 16 17  1  0
 17 18  2  0
 18 19  1  0
 19 20  2  0
 20  2  1  0
  8  3  1  0
 20 11  1  0
 19 14  1  0
M  END
>  <target>  (260) 
-7.02

$$$$

     RDKit          3D

 23 24  0  0  0  0  0  0  0  0999 V2000
   -4.3353   -2.8912    0.2142 C   0  0  0  0  0  0  0  0  0  0  0  0
   -3.7851   -2.2674    1.4808 C   0  0  0  0  0  0  0  0  0  0  0  0
   -2.3738   -2.1774    1.3561 O   0  0  0  0  0  0  0  0  0  0  0  0
   -1.5568   -1.0991    2.2593 P   0  0  0  0  0  0  0  0  0  0  0  0
   -1.8613   -1.3456    4.1692 S   0  0  0  0  0  0  0  0  0  0  0  0
   -2.2151    0.2649    1.6716 O   0  0  0  0  0  0  0  0  0  0  0  0
   -1.7467    1.5208    2.1394 C   0  0  0  0  0  0  0  0  0  0  0  0
   -2.3944    2.6109    1.3104 C   0  0  0  0  0  0  0  0  0  0  0  0
    0.4177   -1.2011    1.5413 S   0  0  0  0  0  0  0  0  0  0  0  0
    0.2192   -0.8767   -0.2444 C   0  0  0  0  0  0  0  0  0  0  0  0
   -0.0843   -2.1727   -1.0121 C   0  0  0  0  0  0  0  0  0  0  0  0
   -0.4211   -1.8275   -2.7374 Cl  0  0  0  0  0  0  0  0  0  0  0  0
    1.3897   -0.1530   -0.7292 N   0  0  0  0  0  0  0  0  0  0  0  0
    2.6041   -0.7071   -1.0315 C   0  0  0  0  0  0  0  0  0  0  0  0
    2.9529   -1.8712   -1.0022 O   0  0  0  0  0  0  0  0  0  0  0  0
    3.4867    0.3946   -1.4095 C   0  0  0  0  0  0  0  0  0  0  0  0
    4.8026    0.3847   -1.8293 C   0  0  0  0  0  0  0  0  0  0  0  0
    5.3895    1.6203   -2.1216 C   0  0  0  0  0  0  0  0  0  0  0  0
    4.6582    2.8190   -1.9862 C   0  0  0  0  0  0  0  0  0  0  0  0
    3.3273    2.8017   -1.5547 C   0  0  0  0  0  0  0  0  0  0  0  0
    2.7701    1.5686   -1.2759 C   0  0  0  0  0  0  0  0  0  0  0  0
    1.4316    1.2133   -0.8102 C   0  0  0  0  0  0  0  0  0  0  0  0
    0.5640    2.0213   -0.5376 O   0  0  0  0  0  0  0  0  0  0  0  0
  1  2  1  0
  2  3  1  0
  3  4  1  0
  4  5  2  0
  4  6  1  0
  6  7  1  0
  7  8  1  0
  4  9  1  0
  9 10  1  0
 10 11  1  0
 11 12  1  0
 10 13  1  0
 13 14  1  0
 14 15  2  0
 14 16  1  0
 16 17  2  0
 17 18  1  0
 18 19  2  0
 19 20  1  0
 20 21  2  0
 21 22  1  0
 22 23  2  0
 22 13  1  0
 21 16  1  0
M  END
>  <target>  (261) 
-6.34

$$$$

     RDKit          3D

 21 22  0  0  0  0  0  0  0  0999 V2000
    4.9708    2.5622   -0.0730 C   0  0  0  0  0  0  0  0  0  0  0  0
    4.7701    1.3706   -0.8225 O   0  0  0  0  0  0  0  0  0  0  0  0
    3.6202    0.6734   -0.5751 C   0  0  0  0  0  0  0  0  0  0  0  0
    2.6395    1.0093    0.3556 C   0  0  0  0  0  0  0  0  0  0  0  0
    1.5054    0.2027    0.5100 C   0  0  0  0  0  0  0  0  0  0  0  0
    1.3300   -0.9558   -0.2631 C   0  0  0  0  0  0  0  0  0  0  0  0
    2.3215   -1.2799   -1.2021 C   0  0  0  0  0  0  0  0  0  0  0  0
    3.4535   -0.4740   -1.3506 C   0  0  0  0  0  0  0  0  0  0  0  0
    0.0922   -1.8549   -0.1116 C   0  0  0  0  0  0  0  0  0  0  0  0
   -1.2022   -1.0288   -0.2340 C   0  0  0  0  0  0  0  0  0  0  0  0
   -1.9820   -0.6199    0.8568 C   0  0  0  0  0  0  0  0  0  0  0  0
   -3.1390    0.1514    0.6725 C   0  0  0  0  0  0  0  0  0  0  0  0
   -3.5357    0.5384   -0.6050 C   0  0  0  0  0  0  0  0  0  0  0  0
   -4.6347    1.2889   -0.9164 O   0  0  0  0  0  0  0  0  0  0  0  0
   -5.4476    1.7193    0.1680 C   0  0  0  0  0  0  0  0  0  0  0  0
   -2.7642    0.1485   -1.6973 C   0  0  0  0  0  0  0  0  0  0  0  0
   -1.6117   -0.6207   -1.5173 C   0  0  0  0  0  0  0  0  0  0  0  0
    0.2115   -2.9136    1.0454 C   0  0  0  0  0  0  0  0  0  0  0  0
    1.5847   -4.0612    0.7247 Cl  0  0  0  0  0  0  0  0  0  0  0  0
    0.5025   -2.2146    2.6783 Cl  0  0  0  0  0  0  0  0  0  0  0  0
   -1.2670   -3.9536    1.1407 Cl  0  0  0  0  0  0  0  0  0  0  0  0
  1  2  1  0
  2  3  1  0
  3  4  2  0
  4  5  1  0
  5  6  2  0
  6  7  1  0
  7  8  2  0
  6  9  1  0
  9 10  1  0
 10 11  2  0
 11 12  1  0
 12 13  2  0
 13 14  1  0
 14 15  1  0
 13 16  1  0
 16 17  2  0
  9 18  1  0
 18 19  1  0
 18 20  1  0
 18 21  1  0
  8  3  1  0
 17 10  1  0
M  END
>  <target>  (262) 
-6.89

$$$$

     RDKit          3D

 24 25  0  0  0  0  0  0  0  0999 V2000
    3.0565    1.5839   -1.2437 F   0  0  0  0  0  0  0  0  0  0  0  0
    3.6401    0.7184   -0.4003 C   0  0  0  0  0  0  0  0  0  0  0  0
    5.0339    0.7282   -0.3261 C   0  0  0  0  0  0  0  0  0  0  0  0
    5.6888   -0.1497    0.5330 C   0  0  0  0  0  0  0  0  0  0  0  0
    4.9416   -1.0305    1.3111 C   0  0  0  0  0  0  0  0  0  0  0  0
    3.5469   -1.0307    1.2279 C   0  0  0  0  0  0  0  0  0  0  0  0
    2.8873   -1.9026    2.0028 F   0  0  0  0  0  0  0  0  0  0  0  0
    2.8709   -0.1568    0.3712 C   0  0  0  0  0  0  0  0  0  0  0  0
    1.3835   -0.1822    0.3059 C   0  0  0  0  0  0  0  0  0  0  0  0
    0.7344   -0.9629    0.9964 O   0  0  0  0  0  0  0  0  0  0  0  0
    0.7672    0.7080   -0.5624 N   0  0  0  0  0  0  0  0  0  0  0  0
   -0.5771    0.8884   -0.8113 C   0  0  0  0  0  0  0  0  0  0  0  0
   -0.9068    1.7429   -1.6292 O   0  0  0  0  0  0  0  0  0  0  0  0
   -1.4230    0.0776   -0.1045 N   0  0  0  0  0  0  0  0  0  0  0  0
   -2.8314    0.0311   -0.1453 C   0  0  0  0  0  0  0  0  0  0  0  0
   -3.6178    0.8511   -0.9583 C   0  0  0  0  0  0  0  0  0  0  0  0
   -5.0111    0.7324   -0.9307 C   0  0  0  0  0  0  0  0  0  0  0  0
   -5.9623    1.7537   -1.9415 Cl  0  0  0  0  0  0  0  0  0  0  0  0
   -5.6257   -0.2003   -0.0963 C   0  0  0  0  0  0  0  0  0  0  0  0
   -6.9644   -0.3044   -0.0791 F   0  0  0  0  0  0  0  0  0  0  0  0
   -4.8542   -1.0222    0.7175 C   0  0  0  0  0  0  0  0  0  0  0  0
   -5.6057   -2.1773    1.7515 Cl  0  0  0  0  0  0  0  0  0  0  0  0
   -3.4660   -0.9024    0.6886 C   0  0  0  0  0  0  0  0  0  0  0  0
   -2.7095   -1.6911    1.4706 F   0  0  0  0  0  0  0  0  0  0  0  0
  1  2  1  0
  2  3  2  0
  3  4  1  0
  4  5  2  0
  5  6  1  0
  6  7  1  0
  6  8  2  0
  8  9  1  0
  9 10  2  0
  9 11  1  0
 11 12  1  0
 12 13  2  0
 12 14  1  0
 14 15  1  0
 15 16  2  0
 16 17  1  0
 17 18  1  0
 17 19  2  0
 19 20  1  0
 19 21  1  0
 21 22  1  0
 21 23  2  0
 23 24  1  0
  8  2  1  0
 23 15  1  0
M  END
>  <target>  (263) 
-7.28

$$$$

     RDKit          3D

 27 29  0  0  0  0  0  0  0  0999 V2000
   -0.9822   -1.2233   -3.2577 O   0  0  0  0  0  0  0  0  0  0  0  0
   -1.1267   -1.0162   -2.0647 C   0  0  0  0  0  0  0  0  0  0  0  0
   -0.1879   -1.0953   -1.0938 N   0  0  0  0  0  0  0  0  0  0  0  0
    1.1977   -1.3946   -1.3214 C   0  0  0  0  0  0  0  0  0  0  0  0
    1.8848   -0.1543   -1.4847 O   0  0  0  0  0  0  0  0  0  0  0  0
    3.2239   -0.3074   -1.6652 C   0  0  0  0  0  0  0  0  0  0  0  0
    3.8037   -1.3826   -1.7120 O   0  0  0  0  0  0  0  0  0  0  0  0
    3.8695    1.0491   -1.8321 C   0  0  0  0  0  0  0  0  0  0  0  0
    5.3898    1.0126   -1.6795 C   0  0  0  0  0  0  0  0  0  0  0  0
    5.8266    0.7943   -0.2287 C   0  0  0  0  0  0  0  0  0  0  0  0
    7.3419    0.7903   -0.1002 C   0  0  0  0  0  0  0  0  0  0  0  0
   -0.7321   -0.8114    0.1270 C   0  0  0  0  0  0  0  0  0  0  0  0
   -0.1196   -0.8316    1.1902 O   0  0  0  0  0  0  0  0  0  0  0  0
   -2.2434   -0.4642   -0.0623 C   0  0  0  0  0  0  0  0  0  0  0  0
   -2.3224   -0.6645   -1.4980 N   0  0  0  0  0  0  0  0  0  0  0  0
   -2.4760    1.0007    0.3415 C   0  0  0  0  0  0  0  0  0  0  0  0
   -2.4558    1.3584    1.7042 C   0  0  0  0  0  0  0  0  0  0  0  0
   -2.6505    2.6811    2.1063 C   0  0  0  0  0  0  0  0  0  0  0  0
   -2.8649    3.6740    1.1554 C   0  0  0  0  0  0  0  0  0  0  0  0
   -2.8825    3.3458   -0.1973 C   0  0  0  0  0  0  0  0  0  0  0  0
   -2.6881    2.0226   -0.6026 C   0  0  0  0  0  0  0  0  0  0  0  0
   -3.2241   -1.4386    0.6057 C   0  0  0  0  0  0  0  0  0  0  0  0
   -4.6128   -1.2371    0.4513 C   0  0  0  0  0  0  0  0  0  0  0  0
   -5.5402   -2.1056    1.0307 C   0  0  0  0  0  0  0  0  0  0  0  0
   -5.1007   -3.1962    1.7735 C   0  0  0  0  0  0  0  0  0  0  0  0
   -3.7362   -3.4169    1.9380 C   0  0  0  0  0  0  0  0  0  0  0  0
   -2.8054   -2.5483    1.3597 C   0  0  0  0  0  0  0  0  0  0  0  0
  1  2  2  0
  2  3  1  0
  3  4  1  0
  4  5  1  0
  5  6  1  0
  6  7  2  0
  6  8  1  0
  8  9  1  0
  9 10  1  0
 10 11  1  0
  3 12  1  0
 12 13  2  0
 12 14  1  0
 14 15  1  0
 14 16  1  0
 16 17  2  0
 17 18  1  0
 18 19  2  0
 19 20  1  0
 20 21  2  0
 14 22  1  0
 22 23  2  0
 23 24  1  0
 24 25  2  0
 25 26  1  0
 26 27  2  0
 15  2  1  0
 21 16  1  0
 27 22  1  0
M  END
>  <target>  (264) 
-4.678

$$$$

     RDKit          3D

 13 13  0  0  0  0  0  0  0  0999 V2000
   -3.3698    1.4247   -0.7275 C   0  0  0  0  0  0  0  0  0  0  0  0
   -2.4279    0.3848   -0.3464 N   0  0  0  0  0  0  0  0  0  0  0  0
   -2.9375   -0.5939    0.6058 C   0  0  0  0  0  0  0  0  0  0  0  0
   -1.0691    0.6872   -0.4894 C   0  0  0  0  0  0  0  0  0  0  0  0
   -0.6918    1.7982   -0.8525 O   0  0  0  0  0  0  0  0  0  0  0  0
   -0.2326   -0.3745   -0.2234 N   0  0  0  0  0  0  0  0  0  0  0  0
    1.1728   -0.3510   -0.1243 C   0  0  0  0  0  0  0  0  0  0  0  0
    1.9208    0.8230   -0.0030 C   0  0  0  0  0  0  0  0  0  0  0  0
    3.3148    0.7685    0.1086 C   0  0  0  0  0  0  0  0  0  0  0  0
    3.9641   -0.4625    0.1068 C   0  0  0  0  0  0  0  0  0  0  0  0
    5.6771   -0.5297    0.2459 Cl  0  0  0  0  0  0  0  0  0  0  0  0
    3.2312   -1.6409   -0.0022 C   0  0  0  0  0  0  0  0  0  0  0  0
    1.8385   -1.5842   -0.1138 C   0  0  0  0  0  0  0  0  0  0  0  0
  1  2  1  0
  2  3  1  0
  2  4  1  0
  4  5  2  0
  4  6  1  0
  6  7  1  0
  7  8  2  0
  8  9  1  0
  9 10  2  0
 10 11  1  0
 10 12  1  0
 12 13  2  0
 13  7  1  0
M  END
>  <target>  (265) 
-2.89

$$$$

     RDKit          3D

 22 24  0  0  0  0  0  0  0  0999 V2000
    0.5775   -0.8218    1.7651 O   0  0  0  0  0  0  0  0  0  0  0  0
    0.0293   -0.5086    0.4614 C   0  0  0  0  0  0  0  0  0  0  0  0
    0.5097   -1.6300   -0.5052 C   0  0  0  0  0  0  0  0  0  0  0  0
    1.9430   -1.6406   -0.7235 N   0  0  0  0  0  0  0  0  0  0  0  0
    2.6111   -1.6603   -1.9067 C   0  0  0  0  0  0  0  0  0  0  0  0
    3.9039   -1.6791   -1.6787 N   0  0  0  0  0  0  0  0  0  0  0  0
    3.9780   -1.6738   -0.3156 C   0  0  0  0  0  0  0  0  0  0  0  0
    2.8012   -1.6538    0.3186 N   0  0  0  0  0  0  0  0  0  0  0  0
   -1.5116   -0.5898    0.5799 C   0  0  0  0  0  0  0  0  0  0  0  0
   -2.1408   -0.8958    1.8037 C   0  0  0  0  0  0  0  0  0  0  0  0
   -3.5328   -0.9694    1.9029 C   0  0  0  0  0  0  0  0  0  0  0  0
   -4.3132   -0.7353    0.7805 C   0  0  0  0  0  0  0  0  0  0  0  0
   -5.6472   -0.8055    0.8750 F   0  0  0  0  0  0  0  0  0  0  0  0
   -3.7285   -0.4278   -0.4396 C   0  0  0  0  0  0  0  0  0  0  0  0
   -2.3365   -0.3545   -0.5407 C   0  0  0  0  0  0  0  0  0  0  0  0
    0.4587    0.9234    0.1247 C   0  0  0  0  0  0  0  0  0  0  0  0
    0.6476    1.8704    1.1515 C   0  0  0  0  0  0  0  0  0  0  0  0
    1.0327    3.1841    0.8674 C   0  0  0  0  0  0  0  0  0  0  0  0
    1.2259    3.5860   -0.4510 C   0  0  0  0  0  0  0  0  0  0  0  0
    1.0222    2.6761   -1.4836 C   0  0  0  0  0  0  0  0  0  0  0  0
    0.6374    1.3683   -1.1916 C   0  0  0  0  0  0  0  0  0  0  0  0
    0.4222    0.5389   -2.2225 F   0  0  0  0  0  0  0  0  0  0  0  0
  1  2  1  0
  2  3  1  0
  3  4  1  0
  4  5  1  0
  5  6  2  0
  6  7  1  0
  7  8  2  0
  2  9  1  0
  9 10  2  0
 10 11  1  0
 11 12  2  0
 12 13  1  0
 12 14  1  0
 14 15  2  0
  2 16  1  0
 16 17  2  0
 17 18  1  0
 18 19  2  0
 19 20  1  0
 20 21  2  0
 21 22  1  0
  8  4  1  0
 15  9  1  0
 21 16  1  0
M  END
>  <target>  (266) 
-3.37

$$$$

     RDKit          3D

 34 37  0  0  0  0  0  0  0  0999 V2000
    4.6671    1.1715    3.4446 C   0  0  0  0  0  0  0  0  0  0  0  0
    4.3927    0.5411    2.1145 C   0  0  0  0  0  0  0  0  0  0  0  0
    4.5836   -0.6384    1.8509 O   0  0  0  0  0  0  0  0  0  0  0  0
    3.9089    1.4691    1.2455 O   0  0  0  0  0  0  0  0  0  0  0  0
    3.5601    0.9445   -0.0370 C   0  0  0  0  0  0  0  0  0  0  0  0
    2.2238    0.1955   -0.0282 C   0  0  0  0  0  0  0  0  0  0  0  0
    1.4680    0.2373    0.9500 O   0  0  0  0  0  0  0  0  0  0  0  0
    1.8334   -0.5696   -1.3121 C   0  0  0  0  0  0  0  0  0  0  0  0
    2.8013   -0.3166   -2.3303 O   0  0  0  0  0  0  0  0  0  0  0  0
    1.6867   -2.0833   -1.0154 C   0  0  0  0  0  0  0  0  0  0  0  0
    0.2800   -2.2173   -0.4346 C   0  0  0  0  0  0  0  0  0  0  0  0
   -0.5828   -1.1128   -1.0826 C   0  0  0  0  0  0  0  0  0  0  0  0
   -1.5389   -0.4626   -0.0490 C   0  0  0  0  0  0  0  0  0  0  0  0
   -2.6874   -1.4564    0.2484 C   0  0  0  0  0  0  0  0  0  0  0  0
   -3.7485   -0.8838    1.1773 C   0  0  0  0  0  0  0  0  0  0  0  0
   -4.2656    0.4120    0.6141 C   0  0  0  0  0  0  0  0  0  0  0  0
   -5.5633    0.5456    0.2884 C   0  0  0  0  0  0  0  0  0  0  0  0
   -6.0876    1.7784   -0.3320 C   0  0  0  0  0  0  0  0  0  0  0  0
   -7.2698    1.8876   -0.6302 O   0  0  0  0  0  0  0  0  0  0  0  0
   -5.1293    2.8712   -0.5780 C   0  0  0  0  0  0  0  0  0  0  0  0
   -3.8362    2.7421   -0.2519 C   0  0  0  0  0  0  0  0  0  0  0  0
   -3.2061    1.5040    0.3891 C   0  0  0  0  0  0  0  0  0  0  0  0
   -2.6938    1.9590    1.7749 C   0  0  0  0  0  0  0  0  0  0  0  0
   -2.0706    0.9046   -0.5426 C   0  0  0  0  0  0  0  0  0  0  0  0
   -2.6504    0.6663   -1.7734 F   0  0  0  0  0  0  0  0  0  0  0  0
   -0.8774    1.8565   -0.7965 C   0  0  0  0  0  0  0  0  0  0  0  0
   -0.1621    2.2259    0.3782 O   0  0  0  0  0  0  0  0  0  0  0  0
    0.0960    1.3272   -1.8545 C   0  0  0  0  0  0  0  0  0  0  0  0
    0.4062   -0.1929   -1.8633 C   0  0  0  0  0  0  0  0  0  0  0  0
    0.3215   -0.6161   -3.3721 C   0  0  0  0  0  0  0  0  0  0  0  0
    2.6154   -2.6468   -0.0730 O   0  0  0  0  0  0  0  0  0  0  0  0
    3.9103   -2.7417   -0.4705 C   0  0  0  0  0  0  0  0  0  0  0  0
    4.7234   -3.5188    0.5173 C   0  0  0  0  0  0  0  0  0  0  0  0
    4.3367   -2.2830   -1.5228 O   0  0  0  0  0  0  0  0  0  0  0  0
  1  2  1  0
  2  3  2  0
  2  4  1  0
  4  5  1  0
  5  6  1  0
  6  7  2  0
  6  8  1  0
  8  9  1  0
  8 10  1  0
 10 11  1  0
 11 12  1  0
 12 13  1  0
 13 14  1  0
 14 15  1  0
 15 16  1  0
 16 17  2  0
 17 18  1  0
 18 19  2  0
 18 20  1  0
 20 21  2  0
 21 22  1  0
 22 23  1  0
 22 24  1  0
 24 25  1  0
 24 26  1  0
 26 27  1  0
 26 28  1  0
 28 29  1  0
 29 30  1  0
 10 31  1  0
 31 32  1  0
 32 33  1  0
 32 34  2  0
 22 16  1  0
 24 13  1  0
 29  8  1  0
 29 12  1  0
M  END
>  <target>  (267) 
-4.13

$$$$

     RDKit          3D

  5  4  0  0  0  0  0  0  0  0999 V2000
    1.9002    0.2741   -0.4386 C   0  0  0  0  0  0  0  0  0  0  0  0
    0.6734   -0.4753    0.0562 C   0  0  0  0  0  0  0  0  0  0  0  0
   -0.5758    0.4040    0.0132 C   0  0  0  0  0  0  0  0  0  0  0  0
   -1.7945   -0.3552    0.5096 C   0  0  0  0  0  0  0  0  0  0  0  0
   -3.3624    0.7967    0.4395 Br  0  0  0  0  0  0  0  0  0  0  0  0
  1  2  1  0
  2  3  1  0
  3  4  1  0
  4  5  1  0
M  END
>  <target>  (268) 
-2.37

$$$$

     RDKit          3D

 10 10  0  0  0  0  0  0  0  0999 V2000
    2.8081   -1.7316    0.0040 Br  0  0  0  0  0  0  0  0  0  0  0  0
    1.2153   -0.6973    0.0015 C   0  0  0  0  0  0  0  0  0  0  0  0
    0.0021   -1.3946    0.0077 C   0  0  0  0  0  0  0  0  0  0  0  0
   -1.2131   -0.7010    0.0063 C   0  0  0  0  0  0  0  0  0  0  0  0
   -2.8028   -1.7401    0.0152 Br  0  0  0  0  0  0  0  0  0  0  0  0
   -1.2153    0.6973   -0.0015 C   0  0  0  0  0  0  0  0  0  0  0  0
   -2.8081    1.7316   -0.0040 Br  0  0  0  0  0  0  0  0  0  0  0  0
   -0.0021    1.3946   -0.0077 C   0  0  0  0  0  0  0  0  0  0  0  0
    1.2131    0.7010   -0.0063 C   0  0  0  0  0  0  0  0  0  0  0  0
    2.8028    1.7401   -0.0152 Br  0  0  0  0  0  0  0  0  0  0  0  0
  1  2  1  0
  2  3  2  0
  3  4  1  0
  4  5  1  0
  4  6  2  0
  6  7  1  0
  6  8  1  0
  8  9  2  0
  9 10  1  0
  9  2  1  0
M  END
>  <target>  (269) 
-6.98

$$$$

     RDKit          3D

  7  6  0  0  0  0  0  0  0  0999 V2000
   -1.5696    1.0943    0.0303 C   0  0  0  0  0  0  0  0  0  0  0  0
   -0.9684   -0.2746    0.3593 C   0  0  0  0  0  0  0  0  0  0  0  0
   -1.8659   -1.3799   -0.2008 C   0  0  0  0  0  0  0  0  0  0  0  0
    0.4528   -0.4135   -0.2065 C   0  0  0  0  0  0  0  0  0  0  0  0
    1.4912    0.4189    0.5299 C   0  0  0  0  0  0  0  0  0  0  0  0
    1.2754    0.9466    1.6197 O   0  0  0  0  0  0  0  0  0  0  0  0
    2.8396    0.5339   -0.1328 C   0  0  0  0  0  0  0  0  0  0  0  0
  1  2  1  0
  2  3  1  0
  2  4  1  0
  4  5  1  0
  5  6  2  0
  5  7  1  0
M  END
>  <target>  (270) 
-0.74

$$$$

     RDKit          3D

 14 14  0  0  0  0  0  0  0  0999 V2000
    5.0435   -0.0637   -1.8462 C   0  0  0  0  0  0  0  0  0  0  0  0
    3.6047    0.3697   -1.6259 C   0  0  0  0  0  0  0  0  0  0  0  0
    2.8519   -0.6284   -0.3101 S   0  0  0  0  0  0  0  0  0  0  0  0
    1.2391    0.0825   -0.2844 C   0  0  0  0  0  0  0  0  0  0  0  0
    0.9695    0.9934   -1.0587 O   0  0  0  0  0  0  0  0  0  0  0  0
    0.3293   -0.4517    0.6335 N   0  0  0  0  0  0  0  0  0  0  0  0
    0.6348   -1.5378    1.5763 C   0  0  0  0  0  0  0  0  0  0  0  0
    0.2861   -2.9040    1.0062 C   0  0  0  0  0  0  0  0  0  0  0  0
   -1.0684    0.0263    0.6263 C   0  0  0  0  0  0  0  0  0  0  0  0
   -1.1939    1.4972    1.0566 C   0  0  0  0  0  0  0  0  0  0  0  0
   -2.6558    1.9387    1.1063 C   0  0  0  0  0  0  0  0  0  0  0  0
   -3.3709    1.6726   -0.2156 C   0  0  0  0  0  0  0  0  0  0  0  0
   -3.2539    0.2102   -0.6372 C   0  0  0  0  0  0  0  0  0  0  0  0
   -1.7959   -0.2423   -0.7028 C   0  0  0  0  0  0  0  0  0  0  0  0
  1  2  1  0
  2  3  1  0
  3  4  1  0
  4  5  2  0
  4  6  1  0
  6  7  1  0
  7  8  1  0
  6  9  1  0
  9 10  1  0
 10 11  1  0
 11 12  1  0
 12 13  1  0
 13 14  1  0
 14  9  1  0
M  END
>  <target>  (271) 
-3.4

$$$$

     RDKit          3D

  9  9  0  0  0  0  0  0  0  0999 V2000
    2.6911    0.3372   -0.2375 C   0  0  0  0  0  0  0  0  0  0  0  0
    1.7673   -0.7236   -0.0288 O   0  0  0  0  0  0  0  0  0  0  0  0
    0.4491   -0.3820    0.0939 C   0  0  0  0  0  0  0  0  0  0  0  0
   -0.4162   -1.4616    0.2975 C   0  0  0  0  0  0  0  0  0  0  0  0
   -1.7905   -1.2568    0.4397 C   0  0  0  0  0  0  0  0  0  0  0  0
   -2.3021    0.0360    0.3778 C   0  0  0  0  0  0  0  0  0  0  0  0
   -3.9932    0.2978    0.5518 Cl  0  0  0  0  0  0  0  0  0  0  0  0
   -1.4501    1.1199    0.1753 C   0  0  0  0  0  0  0  0  0  0  0  0
   -0.0734    0.9114    0.0332 C   0  0  0  0  0  0  0  0  0  0  0  0
  1  2  1  0
  2  3  1  0
  3  4  2  0
  4  5  1  0
  5  6  2  0
  6  7  1  0
  6  8  1  0
  8  9  2  0
  9  3  1  0
M  END
>  <target>  (272) 
-2.78

$$$$

     RDKit          3D

 28 30  0  0  0  0  0  0  0  0999 V2000
    5.1030   -1.1336   -1.5313 C   0  0  0  0  0  0  0  0  0  0  0  0
    5.0060   -0.9914   -0.0295 C   0  0  0  0  0  0  0  0  0  0  0  0
    6.2381   -1.4833    0.6924 C   0  0  0  0  0  0  0  0  0  0  0  0
    4.1998    0.1861    0.4990 C   0  0  0  0  0  0  0  0  0  0  0  0
    4.6424    0.9300    1.6895 C   0  0  0  0  0  0  0  0  0  0  0  0
    3.8799    1.4557    2.6644 C   0  0  0  0  0  0  0  0  0  0  0  0
    2.0142    1.3224    2.6980 Br  0  0  0  0  0  0  0  0  0  0  0  0
    4.6516    2.3899    4.0937 Br  0  0  0  0  0  0  0  0  0  0  0  0
    3.6694   -1.2253    0.6602 C   0  0  0  0  0  0  0  0  0  0  0  0
    2.4931   -1.7018   -0.1026 C   0  0  0  0  0  0  0  0  0  0  0  0
    2.3975   -2.8563   -0.4870 O   0  0  0  0  0  0  0  0  0  0  0  0
    1.5706   -0.7270   -0.2797 O   0  0  0  0  0  0  0  0  0  0  0  0
    0.4135   -1.1320   -1.0368 C   0  0  0  0  0  0  0  0  0  0  0  0
    0.6994   -1.1030   -2.4898 C   0  0  0  0  0  0  0  0  0  0  0  0
    0.9424   -1.0681   -3.6261 N   0  0  0  0  0  0  0  0  0  0  0  0
   -0.7136   -0.1770   -0.6707 C   0  0  0  0  0  0  0  0  0  0  0  0
   -0.5305    1.2171   -0.7101 C   0  0  0  0  0  0  0  0  0  0  0  0
   -1.5696    2.0836   -0.3647 C   0  0  0  0  0  0  0  0  0  0  0  0
   -2.8087    1.5724    0.0178 C   0  0  0  0  0  0  0  0  0  0  0  0
   -3.0130    0.1920    0.0364 C   0  0  0  0  0  0  0  0  0  0  0  0
   -4.1956   -0.3862    0.4406 O   0  0  0  0  0  0  0  0  0  0  0  0
   -5.3663    0.1644   -0.0289 C   0  0  0  0  0  0  0  0  0  0  0  0
   -5.5852    0.4223   -1.3844 C   0  0  0  0  0  0  0  0  0  0  0  0
   -6.8102    0.9463   -1.8001 C   0  0  0  0  0  0  0  0  0  0  0  0
   -7.8172    1.1957   -0.8663 C   0  0  0  0  0  0  0  0  0  0  0  0
   -7.6044    0.9147    0.4839 C   0  0  0  0  0  0  0  0  0  0  0  0
   -6.3806    0.3911    0.9022 C   0  0  0  0  0  0  0  0  0  0  0  0
   -1.9696   -0.6784   -0.2893 C   0  0  0  0  0  0  0  0  0  0  0  0
  1  2  1  0
  2  3  1  0
  2  4  1  0
  4  5  1  0
  5  6  2  3
  6  7  1  0
  6  8  1  0
  4  9  1  0
  9 10  1  0
 10 11  2  0
 10 12  1  0
 12 13  1  0
 13 14  1  0
 14 15  3  0
 13 16  1  0
 16 17  2  0
 17 18  1  0
 18 19  2  0
 19 20  1  0
 20 21  1  0
 21 22  1  0
 22 23  2  0
 23 24  1  0
 24 25  2  0
 25 26  1  0
 26 27  2  0
 20 28  2  0
  9  2  1  0
 28 16  1  0
 27 22  1  0
M  END
>  <target>  (273) 
-8.402000000000001

$$$$

     RDKit          3D

 16 16  0  0  0  0  0  0  0  0999 V2000
   -2.7963   -1.4759    1.5858 C   0  0  0  0  0  0  0  0  0  0  0  0
   -2.0135   -0.3337    0.9482 C   0  0  0  0  0  0  0  0  0  0  0  0
   -0.8294   -0.8140    0.0644 C   0  0  0  0  0  0  0  0  0  0  0  0
   -1.3589   -1.5247   -1.1937 C   0  0  0  0  0  0  0  0  0  0  0  0
    0.1981    0.3460   -0.2263 C   0  0  0  0  0  0  0  0  0  0  0  0
    1.3260   -0.0560   -1.2285 C   0  0  0  0  0  0  0  0  0  0  0  0
    2.1614   -1.2427   -0.8227 C   0  0  0  0  0  0  0  0  0  0  0  0
    3.4730   -1.1795   -0.5602 C   0  0  0  0  0  0  0  0  0  0  0  0
    0.8954    0.7587    1.0756 C   0  0  0  0  0  0  0  0  0  0  0  0
    0.9516    0.0608    2.0854 O   0  0  0  0  0  0  0  0  0  0  0  0
    1.5022    1.9840    1.0655 N   0  0  0  0  0  0  0  0  0  0  0  0
    0.9900    3.0447    0.3895 C   0  0  0  0  0  0  0  0  0  0  0  0
    1.1889    4.1972    0.7586 O   0  0  0  0  0  0  0  0  0  0  0  0
    0.1724    2.7678   -0.6612 N   0  0  0  0  0  0  0  0  0  0  0  0
   -0.4721    1.5735   -0.8445 C   0  0  0  0  0  0  0  0  0  0  0  0
   -1.4921    1.5397   -1.5271 O   0  0  0  0  0  0  0  0  0  0  0  0
  1  2  1  0
  2  3  1  0
  3  4  1  0
  3  5  1  0
  5  6  1  0
  6  7  1  0
  7  8  2  0
  5  9  1  0
  9 10  2  0
  9 11  1  0
 11 12  1  0
 12 13  2  0
 12 14  1  0
 14 15  1  0
 15 16  2  0
 15  5  1  0
M  END
>  <target>  (274) 
-2.016

$$$$

     RDKit          3D

 17 17  0  0  0  0  0  0  0  0999 V2000
    2.8207    2.2595    1.3234 C   0  0  0  0  0  0  0  0  0  0  0  0
    1.9380    1.2052    0.9945 O   0  0  0  0  0  0  0  0  0  0  0  0
    2.2083    0.3732   -0.3695 P   0  0  0  0  0  0  0  0  0  0  0  0
    2.1502    1.3753   -2.0309 S   0  0  0  0  0  0  0  0  0  0  0  0
    3.6267   -0.3298   -0.0181 O   0  0  0  0  0  0  0  0  0  0  0  0
    4.1280   -1.3093   -0.9064 C   0  0  0  0  0  0  0  0  0  0  0  0
    1.1934   -0.8747   -0.2142 O   0  0  0  0  0  0  0  0  0  0  0  0
   -0.1715   -0.8169   -0.1993 C   0  0  0  0  0  0  0  0  0  0  0  0
   -0.8229   -2.0510   -0.2415 C   0  0  0  0  0  0  0  0  0  0  0  0
   -2.2155   -2.1120   -0.2220 C   0  0  0  0  0  0  0  0  0  0  0  0
   -2.9555   -0.9234   -0.1580 C   0  0  0  0  0  0  0  0  0  0  0  0
   -4.4103   -1.0422   -0.1184 N   0  0  0  0  0  0  0  0  0  0  0  0
   -4.9360   -1.8054   -0.9407 O   0  0  0  0  0  0  0  0  0  0  0  0
   -5.0166   -0.3946    0.7454 O   0  0  0  0  0  0  0  0  0  0  0  0
   -2.3228    0.3334   -0.1297 C   0  0  0  0  0  0  0  0  0  0  0  0
   -3.0764    1.6338   -0.0714 C   0  0  0  0  0  0  0  0  0  0  0  0
   -0.9149    0.3639   -0.1354 C   0  0  0  0  0  0  0  0  0  0  0  0
  1  2  1  0
  2  3  1  0
  3  4  2  0
  3  5  1  0
  5  6  1  0
  3  7  1  0
  7  8  1  0
  8  9  2  0
  9 10  1  0
 10 11  2  0
 11 12  1  0
 12 13  1  0
 12 14  2  0
 11 15  1  0
 15 16  1  0
 15 17  2  0
 17  8  1  0
M  CHG  2  12   1  13  -1
M  END
>  <target>  (275) 
-4.04

$$$$

     RDKit          3D

 11 12  0  0  0  0  0  0  0  0999 V2000
   -1.0830    3.5780   -0.2736 I   0  0  0  0  0  0  0  0  0  0  0  0
   -1.1026    1.4748   -0.0815 C   0  0  0  0  0  0  0  0  0  0  0  0
   -2.3706    0.8891    0.0323 C   0  0  0  0  0  0  0  0  0  0  0  0
   -2.4915   -0.4888    0.1633 C   0  0  0  0  0  0  0  0  0  0  0  0
   -1.3490   -1.2845    0.1811 C   0  0  0  0  0  0  0  0  0  0  0  0
   -0.0688   -0.7189    0.0686 C   0  0  0  0  0  0  0  0  0  0  0  0
    1.0631   -1.5511    0.0903 C   0  0  0  0  0  0  0  0  0  0  0  0
    2.3476   -1.0229   -0.0190 C   0  0  0  0  0  0  0  0  0  0  0  0
    2.5176    0.3473   -0.1517 C   0  0  0  0  0  0  0  0  0  0  0  0
    1.4024    1.1891   -0.1750 C   0  0  0  0  0  0  0  0  0  0  0  0
    0.0806    0.6859   -0.0662 C   0  0  0  0  0  0  0  0  0  0  0  0
  1  2  1  0
  2  3  2  0
  3  4  1  0
  4  5  2  0
  5  6  1  0
  6  7  2  0
  7  8  1  0
  8  9  2  0
  9 10  1  0
 10 11  2  0
 11  2  1  0
 11  6  1  0
M  END
>  <target>  (276) 
-4.55

$$$$

     RDKit          3D

 12 11  0  0  0  0  0  0  0  0999 V2000
   -4.0075   -0.4538    0.8243 O   0  0  0  0  0  0  0  0  0  0  0  0
   -2.6566    0.0258    0.9071 C   0  0  0  0  0  0  0  0  0  0  0  0
   -1.7939   -0.8441   -0.0085 C   0  0  0  0  0  0  0  0  0  0  0  0
   -2.1010   -2.2340    0.2707 O   0  0  0  0  0  0  0  0  0  0  0  0
   -0.2710   -0.6839    0.1626 C   0  0  0  0  0  0  0  0  0  0  0  0
    0.3484   -1.7294   -0.6068 O   0  0  0  0  0  0  0  0  0  0  0  0
    0.2710    0.6839   -0.2742 C   0  0  0  0  0  0  0  0  0  0  0  0
   -0.3484    1.7294    0.4951 O   0  0  0  0  0  0  0  0  0  0  0  0
    1.7939    0.8441   -0.1032 C   0  0  0  0  0  0  0  0  0  0  0  0
    2.1010    2.2340   -0.3824 O   0  0  0  0  0  0  0  0  0  0  0  0
    2.6566   -0.0258   -1.0189 C   0  0  0  0  0  0  0  0  0  0  0  0
    4.0074    0.4538   -0.9361 O   0  0  0  0  0  0  0  0  0  0  0  0
  1  2  1  0
  2  3  1  0
  3  4  1  0
  3  5  1  0
  5  6  1  0
  5  7  1  0
  7  8  1  0
  7  9  1  0
  9 10  1  0
  9 11  1  0
 11 12  1  0
M  END
>  <target>  (277) 
1.09

$$$$

     RDKit          3D

  3  2  0  0  0  0  0  0  0  0999 V2000
   -0.8075   -0.4783   -0.0051 C   0  0  0  0  0  0  0  0  0  0  0  0
    0.1487    0.6988    0.0352 C   0  0  0  0  0  0  0  0  0  0  0  0
    1.7775    0.1821    0.6440 S   0  0  0  0  0  0  0  0  0  0  0  0
  1  2  1  0
  2  3  1  0
M  END
>  <target>  (278) 
-0.6

$$$$

     RDKit          3D

  5  4  0  0  0  0  0  0  0  0999 V2000
    1.8230   -1.1201    0.4526 Cl  0  0  0  0  0  0  0  0  0  0  0  0
    0.7457    0.1343   -0.2236 C   0  0  0  0  0  0  0  0  0  0  0  0
   -0.6908   -0.0185    0.2647 C   0  0  0  0  0  0  0  0  0  0  0  0
   -1.4558   -1.5023   -0.3677 Cl  0  0  0  0  0  0  0  0  0  0  0  0
   -1.6589    1.3906   -0.2581 Cl  0  0  0  0  0  0  0  0  0  0  0  0
  1  2  1  0
  2  3  1  0
  3  4  1  0
  3  5  1  0
M  END
>  <target>  (279) 
-1.48

$$$$

     RDKit          3D

 18 19  0  0  0  0  0  0  0  0999 V2000
    4.3227    1.1700   -1.1933 C   0  0  0  0  0  0  0  0  0  0  0  0
    2.8771    1.0798   -1.1076 N   0  0  0  0  0  0  0  0  0  0  0  0
    2.1342    2.3206   -1.2445 C   0  0  0  0  0  0  0  0  0  0  0  0
    2.2934   -0.1192   -0.7084 C   0  0  0  0  0  0  0  0  0  0  0  0
    2.9423   -1.1480   -0.5440 O   0  0  0  0  0  0  0  0  0  0  0  0
    0.9570   -0.0010   -0.5064 O   0  0  0  0  0  0  0  0  0  0  0  0
    0.1916   -1.0590   -0.2689 C   0  0  0  0  0  0  0  0  0  0  0  0
    0.3670   -2.4074   -0.5142 C   0  0  0  0  0  0  0  0  0  0  0  0
   -0.8414   -3.0266   -0.1594 C   0  0  0  0  0  0  0  0  0  0  0  0
   -1.1927   -4.4638   -0.2452 C   0  0  0  0  0  0  0  0  0  0  0  0
   -1.7371   -2.1419    0.2773 N   0  0  0  0  0  0  0  0  0  0  0  0
   -1.0932   -0.9380    0.2676 N   0  0  0  0  0  0  0  0  0  0  0  0
   -1.7721    0.2155    0.7764 C   0  0  0  0  0  0  0  0  0  0  0  0
   -3.1415    0.1189    1.0825 C   0  0  0  0  0  0  0  0  0  0  0  0
   -3.8414    1.2211    1.5797 C   0  0  0  0  0  0  0  0  0  0  0  0
   -3.1824    2.4293    1.7860 C   0  0  0  0  0  0  0  0  0  0  0  0
   -1.8228    2.5337    1.5020 C   0  0  0  0  0  0  0  0  0  0  0  0
   -1.1174    1.4329    1.0023 C   0  0  0  0  0  0  0  0  0  0  0  0
  1  2  1  0
  2  3  1  0
  2  4  1  0
  4  5  2  0
  4  6  1  0
  6  7  1  0
  7  8  2  0
  8  9  1  0
  9 10  1  0
  9 11  2  0
 11 12  1  0
 12 13  1  0
 13 14  2  0
 14 15  1  0
 15 16  2  0
 16 17  1  0
 17 18  2  0
 12  7  1  0
 18 13  1  0
M  END
>  <target>  (280) 
-2.09

$$$$

     RDKit          3D

 10 10  0  0  0  0  0  0  0  0999 V2000
    2.4083   -0.3160    1.3564 N   0  0  0  0  0  0  0  0  0  0  0  0
    1.7410    0.4868    0.4738 C   0  0  0  0  0  0  0  0  0  0  0  0
    2.2419    1.5346    0.0763 O   0  0  0  0  0  0  0  0  0  0  0  0
    0.3739    0.0910    0.0437 C   0  0  0  0  0  0  0  0  0  0  0  0
   -0.0979   -1.2201    0.2062 C   0  0  0  0  0  0  0  0  0  0  0  0
   -1.3930   -1.5579   -0.1990 C   0  0  0  0  0  0  0  0  0  0  0  0
   -2.2217   -0.5944   -0.7730 C   0  0  0  0  0  0  0  0  0  0  0  0
   -1.7556    0.7068   -0.9549 C   0  0  0  0  0  0  0  0  0  0  0  0
   -0.4634    1.0446   -0.5568 C   0  0  0  0  0  0  0  0  0  0  0  0
   -0.0811    2.3403   -0.7881 O   0  0  0  0  0  0  0  0  0  0  0  0
  1  2  1  0
  2  3  2  0
  2  4  1  0
  4  5  2  0
  5  6  1  0
  6  7  2  0
  7  8  1  0
  8  9  2  0
  9 10  1  0
  9  4  1  0
M  END
>  <target>  (281) 
-1.82

$$$$

     RDKit          3D

 10 10  0  0  0  0  0  0  0  0999 V2000
   -2.1001   -0.4494    0.2251 C   0  0  0  0  0  0  0  0  0  0  0  0
   -0.6048   -0.3664    0.0992 C   0  0  0  0  0  0  0  0  0  0  0  0
    0.1513   -1.5473    0.1727 C   0  0  0  0  0  0  0  0  0  0  0  0
    1.5456   -1.5171    0.0657 C   0  0  0  0  0  0  0  0  0  0  0  0
    2.2137   -0.3080   -0.1214 C   0  0  0  0  0  0  0  0  0  0  0  0
    1.4881    0.8778   -0.2110 C   0  0  0  0  0  0  0  0  0  0  0  0
    0.0886    0.8408   -0.1104 C   0  0  0  0  0  0  0  0  0  0  0  0
   -0.6225    2.1098   -0.2305 N   0  0  0  0  0  0  0  0  0  0  0  0
   -1.5888    2.1571   -1.0038 O   0  0  0  0  0  0  0  0  0  0  0  0
   -0.1946    3.0620    0.4371 O   0  0  0  0  0  0  0  0  0  0  0  0
  1  2  1  0
  2  3  2  0
  3  4  1  0
  4  5  2  0
  5  6  1  0
  6  7  2  0
  7  8  1  0
  8  9  1  0
  8 10  2  0
  7  2  1  0
M  CHG  2   8   1   9  -1
M  END
>  <target>  (282) 
-2.33

$$$$

     RDKit          3D

 15 15  0  0  0  0  0  0  0  0999 V2000
   -0.9923    0.6824   -2.1266 O   0  0  0  0  0  0  0  0  0  0  0  0
   -0.7605    0.9638   -0.9521 C   0  0  0  0  0  0  0  0  0  0  0  0
   -1.1946    2.1541   -0.4486 N   0  0  0  0  0  0  0  0  0  0  0  0
   -0.5735    2.8214    0.5558 C   0  0  0  0  0  0  0  0  0  0  0  0
   -0.8134    4.0012    0.7882 O   0  0  0  0  0  0  0  0  0  0  0  0
    0.3257    2.1205    1.2906 N   0  0  0  0  0  0  0  0  0  0  0  0
    0.4102    0.7597    1.2916 C   0  0  0  0  0  0  0  0  0  0  0  0
    0.8172    0.1790    2.2963 O   0  0  0  0  0  0  0  0  0  0  0  0
   -0.0075    0.0367    0.0072 C   0  0  0  0  0  0  0  0  0  0  0  0
   -0.9700   -1.1423    0.4237 C   0  0  0  0  0  0  0  0  0  0  0  0
   -1.3448   -2.0989   -0.7183 C   0  0  0  0  0  0  0  0  0  0  0  0
   -2.2693   -0.6520    1.0895 C   0  0  0  0  0  0  0  0  0  0  0  0
    1.2943   -0.4532   -0.7380 C   0  0  0  0  0  0  0  0  0  0  0  0
    2.2603    0.6962   -1.0808 C   0  0  0  0  0  0  0  0  0  0  0  0
    2.0852   -1.5433    0.0009 C   0  0  0  0  0  0  0  0  0  0  0  0
  1  2  2  0
  2  3  1  0
  3  4  1  0
  4  5  2  0
  4  6  1  0
  6  7  1  0
  7  8  2  0
  7  9  1  0
  9 10  1  0
 10 11  1  0
 10 12  1  0
  9 13  1  0
 13 14  1  0
 13 15  1  0
  9  2  1  0
M  END
>  <target>  (283) 
-2.766

$$$$

     RDKit          3D

  9  9  0  0  0  0  0  0  0  0999 V2000
   -2.5261   -0.0395    0.4401 C   0  0  0  0  0  0  0  0  0  0  0  0
   -1.5812    0.1317   -0.7403 C   0  0  0  0  0  0  0  0  0  0  0  0
   -0.1641   -0.2645   -0.3922 C   0  0  0  0  0  0  0  0  0  0  0  0
    0.2038   -1.6154   -0.5251 C   0  0  0  0  0  0  0  0  0  0  0  0
    1.4925   -2.0431   -0.2090 C   0  0  0  0  0  0  0  0  0  0  0  0
    2.4332   -1.1271    0.2471 C   0  0  0  0  0  0  0  0  0  0  0  0
    2.0837    0.2154    0.3908 C   0  0  0  0  0  0  0  0  0  0  0  0
    0.7876    0.6618    0.0829 C   0  0  0  0  0  0  0  0  0  0  0  0
    0.4654    2.1219    0.2466 C   0  0  0  0  0  0  0  0  0  0  0  0
  1  2  1  0
  2  3  1  0
  3  4  2  0
  4  5  1  0
  5  6  2  0
  6  7  1  0
  7  8  2  0
  8  9  1  0
  8  3  1  0
M  END
>  <target>  (284) 
-3.21

$$$$

     RDKit          3D

  8  7  0  0  0  0  0  0  0  0999 V2000
   -3.7500   -0.4230   -0.5321 C   0  0  0  0  0  0  0  0  0  0  0  0
   -2.5716    0.1400    0.2464 C   0  0  0  0  0  0  0  0  0  0  0  0
   -1.2393   -0.2649   -0.3838 C   0  0  0  0  0  0  0  0  0  0  0  0
   -0.0565    0.3034    0.4023 C   0  0  0  0  0  0  0  0  0  0  0  0
    1.2777   -0.1016   -0.2287 C   0  0  0  0  0  0  0  0  0  0  0  0
    2.4594    0.4694    0.5606 C   0  0  0  0  0  0  0  0  0  0  0  0
    3.8126    0.1639   -0.0738 C   0  0  0  0  0  0  0  0  0  0  0  0
    4.1946   -1.5726   -0.0303 Cl  0  0  0  0  0  0  0  0  0  0  0  0
  1  2  1  0
  2  3  1  0
  3  4  1  0
  4  5  1  0
  5  6  1  0
  6  7  1  0
  7  8  1  0
M  END
>  <target>  (285) 
-4.0

$$$$

     RDKit          3D

 13 13  0  0  0  0  0  0  0  0999 V2000
    0.7866   -1.3283   -2.0339 O   0  0  0  0  0  0  0  0  0  0  0  0
   -0.0531   -1.0416   -1.1840 C   0  0  0  0  0  0  0  0  0  0  0  0
   -1.2582   -1.6891   -1.1668 N   0  0  0  0  0  0  0  0  0  0  0  0
   -2.0569   -1.7931   -0.0714 C   0  0  0  0  0  0  0  0  0  0  0  0
   -2.8832   -2.6933    0.0348 O   0  0  0  0  0  0  0  0  0  0  0  0
   -1.8382   -0.9088    0.9373 N   0  0  0  0  0  0  0  0  0  0  0  0
   -0.6532   -0.2498    1.1122 C   0  0  0  0  0  0  0  0  0  0  0  0
   -0.2940    0.0831    2.2387 O   0  0  0  0  0  0  0  0  0  0  0  0
    0.1189    0.0748   -0.1601 C   0  0  0  0  0  0  0  0  0  0  0  0
   -0.5304    1.3338   -0.8114 C   0  0  0  0  0  0  0  0  0  0  0  0
   -0.3959    2.6296   -0.0187 C   0  0  0  0  0  0  0  0  0  0  0  0
    1.6186    0.3166    0.1403 C   0  0  0  0  0  0  0  0  0  0  0  0
    2.3638   -0.8986    0.6920 C   0  0  0  0  0  0  0  0  0  0  0  0
  1  2  2  0
  2  3  1  0
  3  4  1  0
  4  5  2  0
  4  6  1  0
  6  7  1  0
  7  8  2  0
  7  9  1  0
  9 10  1  0
 10 11  1  0
  9 12  1  0
 12 13  1  0
  9  2  1  0
M  END
>  <target>  (286) 
-2.4

$$$$

     RDKit          3D

 14 15  0  0  0  0  0  0  0  0999 V2000
   -0.4723   -1.8844    0.1751 C   0  0  0  0  0  0  0  0  0  0  0  0
    0.9427   -1.6496   -0.3699 C   0  0  0  0  0  0  0  0  0  0  0  0
    1.6441   -0.4710    0.2636 C   0  0  0  0  0  0  0  0  0  0  0  0
    1.6379    0.7811   -0.3658 C   0  0  0  0  0  0  0  0  0  0  0  0
    2.2579    1.8779    0.2334 C   0  0  0  0  0  0  0  0  0  0  0  0
    2.8915    1.7338    1.4660 C   0  0  0  0  0  0  0  0  0  0  0  0
    2.9040    0.4933    2.1010 C   0  0  0  0  0  0  0  0  0  0  0  0
    2.2817   -0.6045    1.5043 C   0  0  0  0  0  0  0  0  0  0  0  0
   -1.4695   -0.8401   -0.2691 C   0  0  0  0  0  0  0  0  0  0  0  0
   -2.0779   -0.9266   -1.5285 C   0  0  0  0  0  0  0  0  0  0  0  0
   -2.9770    0.0552   -1.9481 C   0  0  0  0  0  0  0  0  0  0  0  0
   -3.2731    1.1331   -1.1156 C   0  0  0  0  0  0  0  0  0  0  0  0
   -2.6716    1.2299    0.1375 C   0  0  0  0  0  0  0  0  0  0  0  0
   -1.7748    0.2480    0.5596 C   0  0  0  0  0  0  0  0  0  0  0  0
  1  2  1  0
  2  3  1  0
  3  4  2  0
  4  5  1  0
  5  6  2  0
  6  7  1  0
  7  8  2  0
  1  9  1  0
  9 10  2  0
 10 11  1  0
 11 12  2  0
 12 13  1  0
 13 14  2  0
  8  3  1  0
 14  9  1  0
M  END
>  <target>  (287) 
-4.62

$$$$

     RDKit          3D

  6  5  0  0  0  0  0  0  0  0999 V2000
    1.8380   -1.2022    0.1370 Cl  0  0  0  0  0  0  0  0  0  0  0  0
    0.6769    0.1547    0.3283 C   0  0  0  0  0  0  0  0  0  0  0  0
    1.4499    1.6093   -0.3877 Cl  0  0  0  0  0  0  0  0  0  0  0  0
   -0.6769   -0.1547   -0.3283 C   0  0  0  0  0  0  0  0  0  0  0  0
   -1.8380    1.2022   -0.1370 Cl  0  0  0  0  0  0  0  0  0  0  0  0
   -1.4499   -1.6093    0.3877 Cl  0  0  0  0  0  0  0  0  0  0  0  0
  1  2  1  0
  2  3  1  0
  2  4  1  0
  4  5  1  0
  4  6  1  0
M  END
>  <target>  (288) 
-1.74

$$$$

     RDKit          3D

 21 23  0  0  0  0  0  0  0  0999 V2000
    1.3819   -2.2722    2.4209 C   0  0  0  0  0  0  0  0  0  0  0  0
    0.4051   -2.0163    1.2739 C   0  0  0  0  0  0  0  0  0  0  0  0
    0.5980   -0.6767    0.6849 N   0  0  0  0  0  0  0  0  0  0  0  0
   -0.5563    0.0070    0.2255 C   0  0  0  0  0  0  0  0  0  0  0  0
   -1.7039   -0.7045   -0.1931 C   0  0  0  0  0  0  0  0  0  0  0  0
   -2.8821   -0.0545   -0.5553 C   0  0  0  0  0  0  0  0  0  0  0  0
   -4.0408   -0.6518   -0.9678 O   0  0  0  0  0  0  0  0  0  0  0  0
   -4.0260   -2.0670   -1.1066 C   0  0  0  0  0  0  0  0  0  0  0  0
   -2.9325    1.3337   -0.4979 C   0  0  0  0  0  0  0  0  0  0  0  0
   -1.8097    2.0851   -0.1220 C   0  0  0  0  0  0  0  0  0  0  0  0
   -1.9334    3.5865   -0.1103 C   0  0  0  0  0  0  0  0  0  0  0  0
   -0.6047    1.4189    0.2053 C   0  0  0  0  0  0  0  0  0  0  0  0
    0.4977    2.2166    0.5627 N   0  0  0  0  0  0  0  0  0  0  0  0
    1.8433    1.9734    0.4898 C   0  0  0  0  0  0  0  0  0  0  0  0
    2.6150    2.8692    0.8431 O   0  0  0  0  0  0  0  0  0  0  0  0
    2.4071    0.7517   -0.1091 C   0  0  0  0  0  0  0  0  0  0  0  0
    3.6442    0.8694   -0.7652 C   0  0  0  0  0  0  0  0  0  0  0  0
    4.2652   -0.2552   -1.2891 C   0  0  0  0  0  0  0  0  0  0  0  0
    3.6334   -1.4682   -1.1214 C   0  0  0  0  0  0  0  0  0  0  0  0
    2.4525   -1.6140   -0.4820 N   0  0  0  0  0  0  0  0  0  0  0  0
    1.8308   -0.5079    0.0212 C   0  0  0  0  0  0  0  0  0  0  0  0
  1  2  1  0
  2  3  1  0
  3  4  1  0
  4  5  2  0
  5  6  1  0
  6  7  1  0
  7  8  1  0
  6  9  2  0
  9 10  1  0
 10 11  1  0
 10 12  2  0
 12 13  1  0
 13 14  1  0
 14 15  2  0
 14 16  1  0
 16 17  2  0
 17 18  1  0
 18 19  2  0
 19 20  1  0
 20 21  2  0
 12  4  1  0
 21  3  1  0
 21 16  1  0
M  END
>  <target>  (289) 
-5.153

$$$$

     RDKit          3D

 15 17  0  0  0  0  0  0  0  0999 V2000
    4.4464    0.2270   -0.2340 C   0  0  0  0  0  0  0  0  0  0  0  0
    2.9474    0.2454   -0.2352 C   0  0  0  0  0  0  0  0  0  0  0  0
    2.2500    1.3307   -0.7567 C   0  0  0  0  0  0  0  0  0  0  0  0
    0.8511    1.3535   -0.7252 C   0  0  0  0  0  0  0  0  0  0  0  0
    0.0882    0.3003   -0.1629 C   0  0  0  0  0  0  0  0  0  0  0  0
    0.8160   -0.7898    0.3775 C   0  0  0  0  0  0  0  0  0  0  0  0
    0.1345   -1.8643    0.9552 C   0  0  0  0  0  0  0  0  0  0  0  0
   -1.2564   -1.8836    1.0076 C   0  0  0  0  0  0  0  0  0  0  0  0
   -2.0076   -0.8284    0.4841 C   0  0  0  0  0  0  0  0  0  0  0  0
   -3.4105   -0.8783    0.5524 C   0  0  0  0  0  0  0  0  0  0  0  0
   -4.1924    0.1542    0.0417 C   0  0  0  0  0  0  0  0  0  0  0  0
   -3.5786    1.2504   -0.5441 C   0  0  0  0  0  0  0  0  0  0  0  0
   -2.1835    1.3115   -0.6178 C   0  0  0  0  0  0  0  0  0  0  0  0
   -1.3521    0.2810   -0.1096 C   0  0  0  0  0  0  0  0  0  0  0  0
    2.2223   -0.8019    0.3402 C   0  0  0  0  0  0  0  0  0  0  0  0
  1  2  1  0
  2  3  2  0
  3  4  1  0
  4  5  2  0
  5  6  1  0
  6  7  1  0
  7  8  2  0
  8  9  1  0
  9 10  2  0
 10 11  1  0
 11 12  2  0
 12 13  1  0
 13 14  2  0
  6 15  2  0
 15  2  1  0
 14  5  1  0
 14  9  1  0
M  END
>  <target>  (290) 
-5.84

$$$$

     RDKit          3D

 20 20  0  0  0  0  0  0  0  0999 V2000
   -1.8937    3.3651   -0.4584 C   0  0  0  0  0  0  0  0  0  0  0  0
   -1.9708    1.9788    0.1615 C   0  0  0  0  0  0  0  0  0  0  0  0
   -3.1857    1.2033   -0.3513 C   0  0  0  0  0  0  0  0  0  0  0  0
   -3.3236   -0.1648    0.3115 C   0  0  0  0  0  0  0  0  0  0  0  0
   -2.1639   -0.9513    0.0150 O   0  0  0  0  0  0  0  0  0  0  0  0
   -2.2159   -2.2124    0.5076 C   0  0  0  0  0  0  0  0  0  0  0  0
   -3.1597   -2.7523    1.0585 O   0  0  0  0  0  0  0  0  0  0  0  0
   -0.9690   -2.9104    0.1481 C   0  0  0  0  0  0  0  0  0  0  0  0
   -1.0948   -4.1282   -0.5370 C   0  0  0  0  0  0  0  0  0  0  0  0
    0.0440   -4.8191   -0.9525 C   0  0  0  0  0  0  0  0  0  0  0  0
    1.3101   -4.3025   -0.6810 C   0  0  0  0  0  0  0  0  0  0  0  0
    1.4411   -3.1006    0.0190 C   0  0  0  0  0  0  0  0  0  0  0  0
    0.3004   -2.3983    0.4426 C   0  0  0  0  0  0  0  0  0  0  0  0
    0.4577   -1.1802    1.2685 C   0  0  0  0  0  0  0  0  0  0  0  0
   -0.2522   -0.8986    2.2181 O   0  0  0  0  0  0  0  0  0  0  0  0
    1.5046   -0.4554    0.8020 O   0  0  0  0  0  0  0  0  0  0  0  0
    1.7600    0.7482    1.5373 C   0  0  0  0  0  0  0  0  0  0  0  0
    2.8864    1.5186    0.8541 C   0  0  0  0  0  0  0  0  0  0  0  0
    2.4993    1.9803   -0.5527 C   0  0  0  0  0  0  0  0  0  0  0  0
    3.6199    2.7755   -1.2042 C   0  0  0  0  0  0  0  0  0  0  0  0
  1  2  1  0
  2  3  1  0
  3  4  1  0
  4  5  1  0
  5  6  1  0
  6  7  2  0
  6  8  1  0
  8  9  2  0
  9 10  1  0
 10 11  2  0
 11 12  1  0
 12 13  2  0
 13 14  1  0
 14 15  2  0
 14 16  1  0
 16 17  1  0
 17 18  1  0
 18 19  1  0
 19 20  1  0
 13  8  1  0
M  END
>  <target>  (291) 
-4.4

$$$$

     RDKit          3D

 13 13  0  0  0  0  0  0  0  0999 V2000
    2.4500   -0.6966   -0.3854 C   0  0  0  0  0  0  0  0  0  0  0  0
    1.7245   -0.2048    0.7478 O   0  0  0  0  0  0  0  0  0  0  0  0
    0.3878   -0.0825    0.4472 C   0  0  0  0  0  0  0  0  0  0  0  0
   -0.0672    1.1717    0.0326 C   0  0  0  0  0  0  0  0  0  0  0  0
    0.8303    2.2061   -0.0516 O   0  0  0  0  0  0  0  0  0  0  0  0
   -1.4139    1.3739   -0.2834 C   0  0  0  0  0  0  0  0  0  0  0  0
   -1.9218    2.9433   -0.8217 Cl  0  0  0  0  0  0  0  0  0  0  0  0
   -2.3220    0.3089   -0.1518 C   0  0  0  0  0  0  0  0  0  0  0  0
   -4.0009    0.5474   -0.5488 Cl  0  0  0  0  0  0  0  0  0  0  0  0
   -1.8727   -0.9476    0.3093 C   0  0  0  0  0  0  0  0  0  0  0  0
   -2.9966   -2.2654    0.4957 Cl  0  0  0  0  0  0  0  0  0  0  0  0
   -0.5138   -1.1394    0.6198 C   0  0  0  0  0  0  0  0  0  0  0  0
    0.0709   -2.6547    1.2337 Cl  0  0  0  0  0  0  0  0  0  0  0  0
  1  2  1  0
  2  3  1  0
  3  4  2  0
  4  5  1  0
  4  6  1  0
  6  7  1  0
  6  8  2  0
  8  9  1  0
  8 10  1  0
 10 11  1  0
 10 12  2  0
 12 13  1  0
 12  3  1  0
M  END
>  <target>  (292) 
-4.02

$$$$

     RDKit          3D

 18 17  0  0  0  0  0  0  0  0999 V2000
   -3.6172    0.1769    2.6744 C   0  0  0  0  0  0  0  0  0  0  0  0
   -2.6939    0.8556    1.6745 C   0  0  0  0  0  0  0  0  0  0  0  0
   -2.3440   -0.0353    0.5680 N   0  0  0  0  0  0  0  0  0  0  0  0
   -3.2154   -0.0058   -0.6114 C   0  0  0  0  0  0  0  0  0  0  0  0
   -2.8329    1.1076   -1.5742 C   0  0  0  0  0  0  0  0  0  0  0  0
   -1.2418   -0.8677    0.7335 C   0  0  0  0  0  0  0  0  0  0  0  0
   -0.5383   -0.8677    1.7435 O   0  0  0  0  0  0  0  0  0  0  0  0
   -0.8777   -1.7681   -0.3956 C   0  0  0  0  0  0  0  0  0  0  0  0
    0.0890   -1.4527   -1.2703 C   0  0  0  0  0  0  0  0  0  0  0  0
    0.8825   -0.1873   -1.2753 C   0  0  0  0  0  0  0  0  0  0  0  0
    2.2179   -0.5250   -0.9620 O   0  0  0  0  0  0  0  0  0  0  0  0
    3.1786    0.7160   -0.5993 P   0  0  0  0  0  0  0  0  0  0  0  0
    3.2036    1.7865   -1.6447 O   0  0  0  0  0  0  0  0  0  0  0  0
    2.6709    1.1959    0.8498 O   0  0  0  0  0  0  0  0  0  0  0  0
    2.6909    0.2670    1.9153 C   0  0  0  0  0  0  0  0  0  0  0  0
    4.5986    0.0158   -0.3060 O   0  0  0  0  0  0  0  0  0  0  0  0
    5.3182   -0.4438   -1.4308 C   0  0  0  0  0  0  0  0  0  0  0  0
   -1.6719   -3.2979   -0.4459 Cl  0  0  0  0  0  0  0  0  0  0  0  0
  1  2  1  0
  2  3  1  0
  3  4  1  0
  4  5  1  0
  3  6  1  0
  6  7  2  0
  6  8  1  0
  8  9  2  3
  9 10  1  0
 10 11  1  0
 11 12  1  0
 12 13  2  0
 12 14  1  0
 14 15  1  0
 12 16  1  0
 16 17  1  0
  8 18  1  0
M  END
>  <target>  (293) 
0.523

$$$$

     RDKit          3D

 20 23  0  0  0  0  0  0  0  0999 V2000
   -2.9062   -0.3712   -1.5975 C   0  0  0  0  0  0  0  0  0  0  0  0
   -2.4926    0.3590   -0.3186 C   0  0  0  0  0  0  0  0  0  0  0  0
   -1.6423    1.6051   -0.6241 C   0  0  0  0  0  0  0  0  0  0  0  0
   -0.1836    1.2700   -0.9444 C   0  0  0  0  0  0  0  0  0  0  0  0
    0.4774    0.4660    0.1928 C   0  0  0  0  0  0  0  0  0  0  0  0
   -0.3408   -0.7928    0.4305 C   0  0  0  0  0  0  0  0  0  0  0  0
    0.1924   -2.0243    0.3471 C   0  0  0  0  0  0  0  0  0  0  0  0
    1.6285   -2.3013    0.0282 C   0  0  0  0  0  0  0  0  0  0  0  0
    2.4865   -1.0769   -0.1599 C   0  0  0  0  0  0  0  0  0  0  0  0
    3.8569   -1.2533   -0.4128 C   0  0  0  0  0  0  0  0  0  0  0  0
    4.6906   -0.1536   -0.5663 C   0  0  0  0  0  0  0  0  0  0  0  0
    6.0109   -0.3868   -0.8094 O   0  0  0  0  0  0  0  0  0  0  0  0
    4.1892    1.1359   -0.4664 C   0  0  0  0  0  0  0  0  0  0  0  0
    2.8283    1.3214   -0.2186 C   0  0  0  0  0  0  0  0  0  0  0  0
    1.9565    0.2238   -0.0794 C   0  0  0  0  0  0  0  0  0  0  0  0
   -1.8171   -0.5997    0.6904 C   0  0  0  0  0  0  0  0  0  0  0  0
   -2.1437   -0.0044    2.0647 C   0  0  0  0  0  0  0  0  0  0  0  0
   -3.6043    0.4119    1.9435 C   0  0  0  0  0  0  0  0  0  0  0  0
   -3.7129    0.7855    0.4852 C   0  0  0  0  0  0  0  0  0  0  0  0
   -4.6816    1.3681    0.0123 O   0  0  0  0  0  0  0  0  0  0  0  0
  1  2  1  0
  2  3  1  0
  3  4  1  0
  4  5  1  0
  5  6  1  0
  6  7  2  0
  7  8  1  0
  8  9  1  0
  9 10  2  0
 10 11  1  0
 11 12  1  0
 11 13  2  0
 13 14  1  0
 14 15  2  0
  6 16  1  0
 16 17  1  0
 17 18  1  0
 18 19  1  0
 19 20  2  0
 15  5  1  0
 15  9  1  0
 16  2  1  0
 19  2  1  0
M  END
>  <target>  (294) 
-5.282

$$$$

     RDKit          3D

 27 28  0  0  0  0  0  0  0  0999 V2000
    5.4193    0.7978   -0.1529 C   0  0  0  0  0  0  0  0  0  0  0  0
    4.5603    0.8278   -1.4029 C   0  0  0  0  0  0  0  0  0  0  0  0
    3.5389   -0.1790   -1.3282 O   0  0  0  0  0  0  0  0  0  0  0  0
    2.4095    0.1776   -0.6762 C   0  0  0  0  0  0  0  0  0  0  0  0
    2.1392    1.2621   -0.1860 O   0  0  0  0  0  0  0  0  0  0  0  0
    1.4978   -0.9819   -0.6154 C   0  0  0  0  0  0  0  0  0  0  0  0
    1.1896   -1.6514   -1.8096 C   0  0  0  0  0  0  0  0  0  0  0  0
    0.2592   -2.6919   -1.8131 C   0  0  0  0  0  0  0  0  0  0  0  0
   -0.3662   -3.0749   -0.6278 C   0  0  0  0  0  0  0  0  0  0  0  0
   -0.0745   -2.4098    0.5635 C   0  0  0  0  0  0  0  0  0  0  0  0
    0.8448   -1.3503    0.5668 C   0  0  0  0  0  0  0  0  0  0  0  0
    1.1868   -0.5201    2.0956 S   0  0  0  0  0  0  0  0  0  0  0  0
    0.4262   -1.1816    3.1373 O   0  0  0  0  0  0  0  0  0  0  0  0
    2.6225   -0.3909    2.2054 O   0  0  0  0  0  0  0  0  0  0  0  0
    0.5009    1.0263    1.8856 N   0  0  0  0  0  0  0  0  0  0  0  0
   -1.0310    1.0731    1.9138 N   0  0  0  0  0  0  0  0  0  0  0  0
   -1.6359    1.1546    3.1559 C   0  0  0  0  0  0  0  0  0  0  0  0
   -2.8281    1.2028    3.4351 O   0  0  0  0  0  0  0  0  0  0  0  0
   -1.7454    0.9862    0.6935 C   0  0  0  0  0  0  0  0  0  0  0  0
   -1.0096    0.9277   -0.4280 N   0  0  0  0  0  0  0  0  0  0  0  0
   -1.6845    0.7862   -1.5796 C   0  0  0  0  0  0  0  0  0  0  0  0
   -0.6845    0.6873   -2.9706 Cl  0  0  0  0  0  0  0  0  0  0  0  0
   -3.0433    0.7154   -1.6888 C   0  0  0  0  0  0  0  0  0  0  0  0
   -3.7001    0.8009   -0.4947 C   0  0  0  0  0  0  0  0  0  0  0  0
   -5.0782    0.7345   -0.5450 O   0  0  0  0  0  0  0  0  0  0  0  0
   -5.6915    0.8445    0.7391 C   0  0  0  0  0  0  0  0  0  0  0  0
   -3.0811    0.9309    0.6887 N   0  0  0  0  0  0  0  0  0  0  0  0
  1  2  1  0
  2  3  1  0
  3  4  1  0
  4  5  2  0
  4  6  1  0
  6  7  2  0
  7  8  1  0
  8  9  2  0
  9 10  1  0
 10 11  2  0
 11 12  1  0
 12 13  2  0
 12 14  2  0
 12 15  1  0
 15 16  1  0
 16 17  1  0
 17 18  2  0
 16 19  1  0
 19 20  2  0
 20 21  1  0
 21 22  1  0
 21 23  2  0
 23 24  1  0
 24 25  1  0
 25 26  1  0
 24 27  2  0
 11  6  1  0
 27 19  1  0
M  END
>  <target>  (295) 
-4.5760000000000005

$$$$

     RDKit          3D

 11 11  0  0  0  0  0  0  0  0999 V2000
   -3.1915    0.1611   -0.0042 C   0  0  0  0  0  0  0  0  0  0  0  0
   -2.1098    0.9381   -0.5037 O   0  0  0  0  0  0  0  0  0  0  0  0
   -0.8470    0.4741   -0.2610 C   0  0  0  0  0  0  0  0  0  0  0  0
   -0.5208   -0.6935    0.4329 C   0  0  0  0  0  0  0  0  0  0  0  0
    0.8196   -1.0560    0.6123 C   0  0  0  0  0  0  0  0  0  0  0  0
    1.8350   -0.2426    0.0928 C   0  0  0  0  0  0  0  0  0  0  0  0
    1.5178    0.9284   -0.6034 C   0  0  0  0  0  0  0  0  0  0  0  0
    0.1761    1.2785   -0.7753 C   0  0  0  0  0  0  0  0  0  0  0  0
    3.2407   -0.6219    0.2804 N   0  0  0  0  0  0  0  0  0  0  0  0
    4.1085    0.1246   -0.1945 O   0  0  0  0  0  0  0  0  0  0  0  0
    3.4772   -1.6672    0.9031 O   0  0  0  0  0  0  0  0  0  0  0  0
  1  2  1  0
  2  3  1  0
  3  4  2  0
  4  5  1  0
  5  6  2  0
  6  7  1  0
  7  8  2  0
  6  9  1  0
  9 10  1  0
  9 11  2  0
  8  3  1  0
M  CHG  2   9   1  10  -1
M  END
>  <target>  (296) 
-2.41

$$$$

     RDKit          3D

  7  6  0  0  0  0  0  0  0  0999 V2000
   -3.2036    0.0439    0.0971 C   0  0  0  0  0  0  0  0  0  0  0  0
   -1.8615   -0.0535    0.8047 C   0  0  0  0  0  0  0  0  0  0  0  0
   -0.6992    0.0472   -0.1829 C   0  0  0  0  0  0  0  0  0  0  0  0
    0.6491   -0.0513    0.5328 C   0  0  0  0  0  0  0  0  0  0  0  0
    1.8126    0.0495   -0.4552 C   0  0  0  0  0  0  0  0  0  0  0  0
    3.1518   -0.0492    0.2635 C   0  0  0  0  0  0  0  0  0  0  0  0
    4.4912    0.0698   -0.9007 Cl  0  0  0  0  0  0  0  0  0  0  0  0
  1  2  1  0
  2  3  1  0
  3  4  1  0
  4  5  1  0
  5  6  1  0
  6  7  1  0
M  END
>  <target>  (297) 
-3.12

$$$$

     RDKit          3D

 20 21  0  0  0  0  0  0  0  0999 V2000
   -3.5171    0.8673    2.7365 Cl  0  0  0  0  0  0  0  0  0  0  0  0
   -2.8039    0.3365    1.2521 C   0  0  0  0  0  0  0  0  0  0  0  0
   -1.4090    0.3777    1.1717 C   0  0  0  0  0  0  0  0  0  0  0  0
   -0.7376   -0.0331    0.0091 C   0  0  0  0  0  0  0  0  0  0  0  0
   -1.5044   -0.4853   -1.0877 C   0  0  0  0  0  0  0  0  0  0  0  0
   -0.6789   -0.9827   -2.5394 Cl  0  0  0  0  0  0  0  0  0  0  0  0
   -2.9122   -0.5284   -1.0109 C   0  0  0  0  0  0  0  0  0  0  0  0
   -3.8407   -1.0871   -2.3744 Cl  0  0  0  0  0  0  0  0  0  0  0  0
   -3.5647   -0.1162    0.1656 C   0  0  0  0  0  0  0  0  0  0  0  0
   -5.2987   -0.1580    0.2816 Cl  0  0  0  0  0  0  0  0  0  0  0  0
    0.7380    0.0209   -0.0148 C   0  0  0  0  0  0  0  0  0  0  0  0
    1.3630    1.2024   -0.4440 C   0  0  0  0  0  0  0  0  0  0  0  0
    2.7561    1.3038   -0.4968 C   0  0  0  0  0  0  0  0  0  0  0  0
    3.4100    2.8096   -1.0433 Cl  0  0  0  0  0  0  0  0  0  0  0  0
    3.5616    0.2216   -0.1171 C   0  0  0  0  0  0  0  0  0  0  0  0
    5.2927    0.3657   -0.1860 Cl  0  0  0  0  0  0  0  0  0  0  0  0
    2.9559   -0.9707    0.3206 C   0  0  0  0  0  0  0  0  0  0  0  0
    3.9400   -2.3240    0.8036 Cl  0  0  0  0  0  0  0  0  0  0  0  0
    1.5497   -1.0686    0.3721 C   0  0  0  0  0  0  0  0  0  0  0  0
    0.7813   -2.5333    0.9203 Cl  0  0  0  0  0  0  0  0  0  0  0  0
  1  2  1  0
  2  3  2  0
  3  4  1  0
  4  5  2  0
  5  6  1  0
  5  7  1  0
  7  8  1  0
  7  9  2  0
  9 10  1  0
  4 11  1  0
 11 12  2  0
 12 13  1  0
 13 14  1  0
 13 15  2  0
 15 16  1  0
 15 17  1  0
 17 18  1  0
 17 19  2  0
 19 20  1  0
  9  2  1  0
 19 11  1  0
M  END
>  <target>  (298) 
-9.16

$$$$

     RDKit          3D

 34 36  0  0  0  0  0  0  0  0999 V2000
    5.1676   -2.4740    2.4246 O   0  0  0  0  0  0  0  0  0  0  0  0
    4.1597   -1.8325    3.2035 C   0  0  0  0  0  0  0  0  0  0  0  0
    2.8943   -1.4896    2.4098 C   0  0  0  0  0  0  0  0  0  0  0  0
    3.1765   -0.5011    1.4047 O   0  0  0  0  0  0  0  0  0  0  0  0
    2.1812   -0.6271    0.3442 C   0  0  0  0  0  0  0  0  0  0  0  0
    3.0338   -0.8278   -0.9540 C   0  0  0  0  0  0  0  0  0  0  0  0
    3.8372   -2.0167   -0.9296 O   0  0  0  0  0  0  0  0  0  0  0  0
    1.3864    0.5724    0.3979 O   0  0  0  0  0  0  0  0  0  0  0  0
    1.0828    1.2097   -0.8416 C   0  0  0  0  0  0  0  0  0  0  0  0
    0.1689    0.3961   -1.5667 O   0  0  0  0  0  0  0  0  0  0  0  0
   -0.8834    1.1062   -2.2576 C   0  0  0  0  0  0  0  0  0  0  0  0
   -1.6285    0.0886   -3.1330 C   0  0  0  0  0  0  0  0  0  0  0  0
   -3.0498    0.0161   -2.9330 O   0  0  0  0  0  0  0  0  0  0  0  0
   -3.5889   -0.2050   -1.6193 C   0  0  0  0  0  0  0  0  0  0  0  0
   -3.4812    0.9843   -0.8442 O   0  0  0  0  0  0  0  0  0  0  0  0
   -3.3141    0.8108    0.5668 C   0  0  0  0  0  0  0  0  0  0  0  0
   -3.3069    2.2022    1.2271 C   0  0  0  0  0  0  0  0  0  0  0  0
   -2.1237    2.9514    0.9371 O   0  0  0  0  0  0  0  0  0  0  0  0
   -2.0691   -0.0361    0.9104 C   0  0  0  0  0  0  0  0  0  0  0  0
   -0.8484    0.7499    0.9078 O   0  0  0  0  0  0  0  0  0  0  0  0
   -1.9319   -1.2604   -0.0167 C   0  0  0  0  0  0  0  0  0  0  0  0
   -1.6125   -2.4212    0.8003 O   0  0  0  0  0  0  0  0  0  0  0  0
   -3.1375   -1.5147   -0.9129 C   0  0  0  0  0  0  0  0  0  0  0  0
   -4.1732   -2.0522   -0.0585 O   0  0  0  0  0  0  0  0  0  0  0  0
   -0.3309    2.3556   -2.9325 C   0  0  0  0  0  0  0  0  0  0  0  0
    0.8028    2.0250   -3.7474 O   0  0  0  0  0  0  0  0  0  0  0  0
    0.0948    3.3414   -1.8122 C   0  0  0  0  0  0  0  0  0  0  0  0
    1.1446    4.1761   -2.3333 O   0  0  0  0  0  0  0  0  0  0  0  0
    0.5441    2.6214   -0.5243 C   0  0  0  0  0  0  0  0  0  0  0  0
   -0.5825    2.5123    0.3765 O   0  0  0  0  0  0  0  0  0  0  0  0
    1.3434   -1.9146    0.6795 C   0  0  0  0  0  0  0  0  0  0  0  0
    0.0954   -1.6585    1.3490 O   0  0  0  0  0  0  0  0  0  0  0  0
    2.2295   -2.6560    1.6787 C   0  0  0  0  0  0  0  0  0  0  0  0
    3.1601   -3.5342    1.0440 O   0  0  0  0  0  0  0  0  0  0  0  0
  1  2  1  0
  2  3  1  0
  3  4  1  0
  4  5  1  0
  5  6  1  0
  6  7  1  0
  5  8  1  0
  8  9  1  0
  9 10  1  0
 10 11  1  0
 11 12  1  0
 12 13  1  0
 13 14  1  0
 14 15  1  0
 15 16  1  0
 16 17  1  0
 17 18  1  0
 16 19  1  0
 19 20  1  0
 19 21  1  0
 21 22  1  0
 21 23  1  0
 23 24  1  0
 11 25  1  0
 25 26  1  0
 25 27  1  0
 27 28  1  0
 27 29  1  0
 29 30  1  0
  5 31  1  0
 31 32  1  0
 31 33  1  0
 33 34  1  0
 33  3  1  0
 29  9  1  0
 23 14  1  0
M  END
>  <target>  (299) 
-0.41

$$$$

     RDKit          3D

 26 25  0  0  0  0  0  0  0  0999 V2000
   12.0306    0.4780    1.9983 C   0  0  0  0  0  0  0  0  0  0  0  0
   10.6769    0.9573    1.4974 C   0  0  0  0  0  0  0  0  0  0  0  0
   10.1497    0.1639    0.2988 C   0  0  0  0  0  0  0  0  0  0  0  0
    9.8065   -1.2886    0.6389 C   0  0  0  0  0  0  0  0  0  0  0  0
    9.2933   -2.0910   -0.5622 C   0  0  0  0  0  0  0  0  0  0  0  0
    8.0140   -1.5650   -1.2223 C   0  0  0  0  0  0  0  0  0  0  0  0
    6.8234   -1.4925   -0.2630 C   0  0  0  0  0  0  0  0  0  0  0  0
    5.4958   -1.1804   -0.9633 C   0  0  0  0  0  0  0  0  0  0  0  0
    5.4439    0.2282   -1.5613 C   0  0  0  0  0  0  0  0  0  0  0  0
    4.1185    0.5422   -2.2633 C   0  0  0  0  0  0  0  0  0  0  0  0
    2.9260    0.6309   -1.3066 C   0  0  0  0  0  0  0  0  0  0  0  0
    1.6565    1.0616   -2.0469 C   0  0  0  0  0  0  0  0  0  0  0  0
    0.4538    1.2817   -1.1227 C   0  0  0  0  0  0  0  0  0  0  0  0
   -0.0574   -0.0076   -0.4740 C   0  0  0  0  0  0  0  0  0  0  0  0
   -1.2614    0.2108    0.4503 C   0  0  0  0  0  0  0  0  0  0  0  0
   -2.5392    0.6025   -0.2971 C   0  0  0  0  0  0  0  0  0  0  0  0
   -3.7432    0.8209    0.6273 C   0  0  0  0  0  0  0  0  0  0  0  0
   -4.2539   -0.4681    1.2767 C   0  0  0  0  0  0  0  0  0  0  0  0
   -5.4577   -0.2477    2.1992 C   0  0  0  0  0  0  0  0  0  0  0  0
   -6.7244    0.1888    1.4579 C   0  0  0  0  0  0  0  0  0  0  0  0
   -7.9204    0.2678    2.4109 C   0  0  0  0  0  0  0  0  0  0  0  0
   -9.1897    0.8148    1.7514 C   0  0  0  0  0  0  0  0  0  0  0  0
   -9.7524   -0.1006    0.6619 C   0  0  0  0  0  0  0  0  0  0  0  0
  -11.0793    0.4352    0.1192 C   0  0  0  0  0  0  0  0  0  0  0  0
  -11.6418   -0.4750   -0.9724 C   0  0  0  0  0  0  0  0  0  0  0  0
  -12.9604    0.0537   -1.5138 C   0  0  0  0  0  0  0  0  0  0  0  0
  1  2  1  0
  2  3  1  0
  3  4  1  0
  4  5  1  0
  5  6  1  0
  6  7  1  0
  7  8  1  0
  8  9  1  0
  9 10  1  0
 10 11  1  0
 11 12  1  0
 12 13  1  0
 13 14  1  0
 14 15  1  0
 15 16  1  0
 16 17  1  0
 17 18  1  0
 18 19  1  0
 19 20  1  0
 20 21  1  0
 21 22  1  0
 22 23  1  0
 23 24  1  0
 24 25  1  0
 25 26  1  0
M  END
>  <target>  (300) 
-8.334

$$$$

     RDKit          3D

 19 21  0  0  0  0  0  0  0  0999 V2000
    2.1077   -2.0205    1.7933 C   0  0  0  0  0  0  0  0  0  0  0  0
    1.1792   -2.1322    0.5851 C   0  0  0  0  0  0  0  0  0  0  0  0
    0.5150   -0.8477    0.2963 N   0  0  0  0  0  0  0  0  0  0  0  0
   -0.7798   -0.9035   -0.2786 C   0  0  0  0  0  0  0  0  0  0  0  0
   -1.1897   -2.0160   -1.0477 C   0  0  0  0  0  0  0  0  0  0  0  0
   -2.4687   -2.1033   -1.5971 C   0  0  0  0  0  0  0  0  0  0  0  0
   -3.3722   -1.0744   -1.3933 C   0  0  0  0  0  0  0  0  0  0  0  0
   -2.9891    0.0423   -0.6504 C   0  0  0  0  0  0  0  0  0  0  0  0
   -1.6955    0.1597   -0.0975 C   0  0  0  0  0  0  0  0  0  0  0  0
   -1.3786    1.3208    0.6818 N   0  0  0  0  0  0  0  0  0  0  0  0
   -2.4711    1.9953    1.3776 C   0  0  0  0  0  0  0  0  0  0  0  0
   -0.1279    1.9492    0.7569 C   0  0  0  0  0  0  0  0  0  0  0  0
    0.0414    2.9783    1.4220 O   0  0  0  0  0  0  0  0  0  0  0  0
    1.0391    1.5007   -0.0279 C   0  0  0  0  0  0  0  0  0  0  0  0
    1.9093    2.4842   -0.5267 C   0  0  0  0  0  0  0  0  0  0  0  0
    3.0842    2.1137   -1.1656 C   0  0  0  0  0  0  0  0  0  0  0  0
    3.3604    0.7663   -1.2637 C   0  0  0  0  0  0  0  0  0  0  0  0
    2.5503   -0.2015   -0.7817 N   0  0  0  0  0  0  0  0  0  0  0  0
    1.3862    0.1613   -0.1699 C   0  0  0  0  0  0  0  0  0  0  0  0
  1  2  1  0
  2  3  1  0
  3  4  1  0
  4  5  2  0
  5  6  1  0
  6  7  2  0
  7  8  1  0
  8  9  2  0
  9 10  1  0
 10 11  1  0
 10 12  1  0
 12 13  2  0
 12 14  1  0
 14 15  2  0
 15 16  1  0
 16 17  2  0
 17 18  1  0
 18 19  2  0
  9  4  1  0
 19  3  1  0
 19 14  1  0
M  END
>  <target>  (301) 
-3.324

$$$$

     RDKit          3D

  4  3  0  0  0  0  0  0  0  0999 V2000
   -0.8136   -0.0580   -0.0342 C   0  0  0  0  0  0  0  0  0  0  0  0
    0.6907    0.0062    0.1580 C   0  0  0  0  0  0  0  0  0  0  0  0
    1.2717    1.6719   -0.0691 Cl  0  0  0  0  0  0  0  0  0  0  0  0
    1.5067   -1.0818   -0.9882 Cl  0  0  0  0  0  0  0  0  0  0  0  0
  1  2  1  0
  2  3  1  0
  2  4  1  0
M  END
>  <target>  (302) 
-1.29

$$$$

     RDKit          3D

 11 11  0  0  0  0  0  0  0  0999 V2000
   -3.3767   -0.2000   -0.7879 N   0  0  0  0  0  0  0  0  0  0  0  0
   -2.0666   -0.1069   -0.3059 C   0  0  0  0  0  0  0  0  0  0  0  0
   -1.4162    1.1311   -0.2732 C   0  0  0  0  0  0  0  0  0  0  0  0
   -0.0704    1.2228    0.0923 C   0  0  0  0  0  0  0  0  0  0  0  0
    0.6442    0.0582    0.3776 C   0  0  0  0  0  0  0  0  0  0  0  0
    0.0229   -1.1896    0.3053 C   0  0  0  0  0  0  0  0  0  0  0  0
   -1.3236   -1.2665   -0.0615 C   0  0  0  0  0  0  0  0  0  0  0  0
    2.3390    0.1669    0.8670 S   0  0  0  0  0  0  0  0  0  0  0  0
    3.1351    0.0675   -0.6072 N   0  0  0  0  0  0  0  0  0  0  0  0
    2.7021   -1.0262    1.5956 O   0  0  0  0  0  0  0  0  0  0  0  0
    2.6048    1.4934    1.3731 O   0  0  0  0  0  0  0  0  0  0  0  0
  1  2  1  0
  2  3  2  0
  3  4  1  0
  4  5  2  0
  5  6  1  0
  6  7  2  0
  5  8  1  0
  8  9  1  0
  8 10  2  0
  8 11  2  0
  7  2  1  0
M  END
>  <target>  (303) 
-1.34

$$$$

     RDKit          3D

 22 22  0  0  0  0  0  0  0  0999 V2000
    3.5856   -1.5673   -1.2579 C   0  0  0  0  0  0  0  0  0  0  0  0
    2.5919   -0.6285   -1.9267 C   0  0  0  0  0  0  0  0  0  0  0  0
    2.2787    0.6074   -1.0796 C   0  0  0  0  0  0  0  0  0  0  0  0
    1.5041    0.2538    0.1304 N   0  0  0  0  0  0  0  0  0  0  0  0
    1.9082    0.9345    1.3796 C   0  0  0  0  0  0  0  0  0  0  0  0
    3.1342    0.2446    1.9832 C   0  0  0  0  0  0  0  0  0  0  0  0
    3.5414    0.8880    3.2992 C   0  0  0  0  0  0  0  0  0  0  0  0
    0.1128    0.1238   -0.0313 C   0  0  0  0  0  0  0  0  0  0  0  0
   -0.7840    1.1596   -0.3571 C   0  0  0  0  0  0  0  0  0  0  0  0
   -2.1687    0.9589   -0.5473 C   0  0  0  0  0  0  0  0  0  0  0  0
   -2.7303   -0.3145   -0.4007 C   0  0  0  0  0  0  0  0  0  0  0  0
   -1.8802   -1.3660   -0.0466 C   0  0  0  0  0  0  0  0  0  0  0  0
   -0.5022   -1.1331    0.1367 C   0  0  0  0  0  0  0  0  0  0  0  0
    0.2891   -2.2789    0.5370 N   0  0  0  0  0  0  0  0  0  0  0  0
    0.5174   -3.1320   -0.3326 O   0  0  0  0  0  0  0  0  0  0  0  0
    0.6016   -2.3598    1.7332 O   0  0  0  0  0  0  0  0  0  0  0  0
   -4.2140   -0.5683   -0.5998 C   0  0  0  0  0  0  0  0  0  0  0  0
   -4.6558   -0.2336   -2.0266 C   0  0  0  0  0  0  0  0  0  0  0  0
   -5.0556    0.1954    0.4254 C   0  0  0  0  0  0  0  0  0  0  0  0
   -0.3356    2.5298   -0.4869 N   0  0  0  0  0  0  0  0  0  0  0  0
   -0.1252    3.1581    0.5588 O   0  0  0  0  0  0  0  0  0  0  0  0
   -0.2518    2.9859   -1.6353 O   0  0  0  0  0  0  0  0  0  0  0  0
  1  2  1  0
  2  3  1  0
  3  4  1  0
  4  5  1  0
  5  6  1  0
  6  7  1  0
  4  8  1  0
  8  9  2  0
  9 10  1  0
 10 11  2  0
 11 12  1  0
 12 13  2  0
 13 14  1  0
 14 15  1  0
 14 16  2  0
 11 17  1  0
 17 18  1  0
 17 19  1  0
  9 20  1  0
 20 21  1  0
 20 22  2  0
 13  8  1  0
M  CHG  4  14   1  15  -1  20   1  21  -1
M  END
>  <target>  (304) 
-6.49

$$$$

     RDKit          3D

 12 12  0  0  0  0  0  0  0  0999 V2000
   -2.9923    0.6290   -0.7027 Cl  0  0  0  0  0  0  0  0  0  0  0  0
   -1.4317    0.2429    0.1252 C   0  0  0  0  0  0  0  0  0  0  0  0
   -0.4235    1.3893   -0.1223 C   0  0  0  0  0  0  0  0  0  0  0  0
   -1.0036    2.8868    0.7088 Cl  0  0  0  0  0  0  0  0  0  0  0  0
    0.9944    1.0409    0.3697 C   0  0  0  0  0  0  0  0  0  0  0  0
    2.1788    2.3412   -0.0248 Cl  0  0  0  0  0  0  0  0  0  0  0  0
    1.4924   -0.3150   -0.1685 C   0  0  0  0  0  0  0  0  0  0  0  0
    1.7494   -0.2789   -1.9546 Cl  0  0  0  0  0  0  0  0  0  0  0  0
    0.5027   -1.4404    0.1655 C   0  0  0  0  0  0  0  0  0  0  0  0
    0.5027   -1.7026    1.9512 Cl  0  0  0  0  0  0  0  0  0  0  0  0
   -0.9064   -1.1183   -0.3698 C   0  0  0  0  0  0  0  0  0  0  0  0
   -2.0446   -2.4592    0.0246 Cl  0  0  0  0  0  0  0  0  0  0  0  0
  1  2  1  0
  2  3  1  0
  3  4  1  0
  3  5  1  0
  5  6  1  0
  5  7  1  0
  7  8  1  0
  7  9  1  0
  9 10  1  0
  9 11  1  0
 11 12  1  0
 11  2  1  0
M  END
>  <target>  (305) 
-4.64

$$$$

     RDKit          3D

 22 22  0  0  0  0  0  0  0  0999 V2000
   -0.8129   -1.9623   -2.5808 C   0  0  0  0  0  0  0  0  0  0  0  0
   -1.9158   -1.6677   -1.5844 C   0  0  0  0  0  0  0  0  0  0  0  0
   -1.3152   -1.3394   -0.3433 O   0  0  0  0  0  0  0  0  0  0  0  0
   -2.1619   -0.4726    0.7381 P   0  0  0  0  0  0  0  0  0  0  0  0
   -3.7804   -1.3599    1.3469 S   0  0  0  0  0  0  0  0  0  0  0  0
   -2.2560    1.0112    0.0275 N   0  0  0  0  0  0  0  0  0  0  0  0
   -3.0387    2.0935    0.6139 C   0  0  0  0  0  0  0  0  0  0  0  0
   -2.4308    2.6009    1.9198 C   0  0  0  0  0  0  0  0  0  0  0  0
   -3.1153    3.2302   -0.4060 C   0  0  0  0  0  0  0  0  0  0  0  0
   -1.0667   -0.2517    1.9207 O   0  0  0  0  0  0  0  0  0  0  0  0
   -0.0442   -1.1331    2.1355 C   0  0  0  0  0  0  0  0  0  0  0  0
   -0.2370   -2.1061    3.1182 C   0  0  0  0  0  0  0  0  0  0  0  0
    0.7762   -3.0209    3.3975 C   0  0  0  0  0  0  0  0  0  0  0  0
    1.9834   -2.9554    2.7046 C   0  0  0  0  0  0  0  0  0  0  0  0
    2.1820   -1.9713    1.7316 C   0  0  0  0  0  0  0  0  0  0  0  0
    1.1694   -1.0434    1.4367 C   0  0  0  0  0  0  0  0  0  0  0  0
    1.3736    0.0180    0.4053 C   0  0  0  0  0  0  0  0  0  0  0  0
    0.6373    0.9789    0.2387 O   0  0  0  0  0  0  0  0  0  0  0  0
    2.4766   -0.2609   -0.3361 O   0  0  0  0  0  0  0  0  0  0  0  0
    2.7756    0.6562   -1.4051 C   0  0  0  0  0  0  0  0  0  0  0  0
    3.5771   -0.1154   -2.4460 C   0  0  0  0  0  0  0  0  0  0  0  0
    3.5824    1.8280   -0.8587 C   0  0  0  0  0  0  0  0  0  0  0  0
  1  2  1  0
  2  3  1  0
  3  4  1  0
  4  5  2  0
  4  6  1  0
  6  7  1  0
  7  8  1  0
  7  9  1  0
  4 10  1  0
 10 11  1  0
 11 12  2  0
 12 13  1  0
 13 14  2  0
 14 15  1  0
 15 16  2  0
 16 17  1  0
 17 18  2  0
 17 19  1  0
 19 20  1  0
 20 21  1  0
 20 22  1  0
 16 11  1  0
M  END
>  <target>  (306) 
-4.194

$$$$

     RDKit          3D

  9  9  0  0  0  0  0  0  0  0999 V2000
   -0.8933    2.9344    0.3010 Cl  0  0  0  0  0  0  0  0  0  0  0  0
   -0.3952    1.2856    0.1319 C   0  0  0  0  0  0  0  0  0  0  0  0
   -1.4065    0.3201    0.0561 C   0  0  0  0  0  0  0  0  0  0  0  0
   -1.0820   -1.0280   -0.0807 C   0  0  0  0  0  0  0  0  0  0  0  0
    0.2555   -1.4136   -0.1419 C   0  0  0  0  0  0  0  0  0  0  0  0
    1.2714   -0.4531   -0.0666 C   0  0  0  0  0  0  0  0  0  0  0  0
    2.9026   -1.0255   -0.1512 Cl  0  0  0  0  0  0  0  0  0  0  0  0
    0.9548    0.9071    0.0712 C   0  0  0  0  0  0  0  0  0  0  0  0
    2.2113    2.1009    0.1649 Cl  0  0  0  0  0  0  0  0  0  0  0  0
  1  2  1  0
  2  3  2  0
  3  4  1  0
  4  5  2  0
  5  6  1  0
  6  7  1  0
  6  8  2  0
  8  9  1  0
  8  2  1  0
M  END
>  <target>  (307) 
-4.0

$$$$

     RDKit          3D

  5  4  0  0  0  0  0  0  0  0999 V2000
   -1.1027   -1.3955   -0.1050 Cl  0  0  0  0  0  0  0  0  0  0  0  0
    0.0000   -0.0000   -0.0000 C   0  0  0  0  0  0  0  0  0  0  0  0
   -0.9428    1.5095   -0.0831 Cl  0  0  0  0  0  0  0  0  0  0  0  0
    1.1562   -0.0534   -1.3546 Cl  0  0  0  0  0  0  0  0  0  0  0  0
    0.8894   -0.0606    1.5427 Cl  0  0  0  0  0  0  0  0  0  0  0  0
  1  2  1  0
  2  3  1  0
  2  4  1  0
  2  5  1  0
M  END
>  <target>  (308) 
-2.31

$$$$

     RDKit          3D

 11 11  0  0  0  0  0  0  0  0999 V2000
    3.1713    0.3304    0.1602 O   0  0  0  0  0  0  0  0  0  0  0  0
    2.3347   -0.5827    0.1443 N   0  0  0  0  0  0  0  0  0  0  0  0
    2.6062   -1.7897    0.1976 O   0  0  0  0  0  0  0  0  0  0  0  0
    0.9177   -0.2065    0.0560 C   0  0  0  0  0  0  0  0  0  0  0  0
   -0.0650   -1.2049    0.0351 C   0  0  0  0  0  0  0  0  0  0  0  0
   -1.4134   -0.8422   -0.0491 C   0  0  0  0  0  0  0  0  0  0  0  0
   -2.5835   -2.1135   -0.0714 Cl  0  0  0  0  0  0  0  0  0  0  0  0
   -1.7769    0.5102   -0.1120 C   0  0  0  0  0  0  0  0  0  0  0  0
   -3.4225    1.0234   -0.2170 Cl  0  0  0  0  0  0  0  0  0  0  0  0
   -0.7880    1.5005   -0.0905 C   0  0  0  0  0  0  0  0  0  0  0  0
    0.5616    1.1473   -0.0065 C   0  0  0  0  0  0  0  0  0  0  0  0
  1  2  1  0
  2  3  2  0
  2  4  1  0
  4  5  2  0
  5  6  1  0
  6  7  1  0
  6  8  2  0
  8  9  1  0
  8 10  1  0
 10 11  2  0
 11  4  1  0
M  CHG  2   1  -1   2   1
M  END
>  <target>  (309) 
-3.2

$$$$

     RDKit          3D

  9  9  0  0  0  0  0  0  0  0999 V2000
   -2.8626   -0.5672    0.7202 O   0  0  0  0  0  0  0  0  0  0  0  0
   -1.4819   -0.2911    0.4408 C   0  0  0  0  0  0  0  0  0  0  0  0
   -1.4326    0.9467   -0.4545 C   0  0  0  0  0  0  0  0  0  0  0  0
   -0.0593    1.4849   -0.8519 C   0  0  0  0  0  0  0  0  0  0  0  0
    0.9666    1.5467    0.2798 C   0  0  0  0  0  0  0  0  0  0  0  0
    2.0045    0.4225    0.2592 C   0  0  0  0  0  0  0  0  0  0  0  0
    1.5013   -0.9870    0.5782 C   0  0  0  0  0  0  0  0  0  0  0  0
    0.5901   -1.5929   -0.4892 C   0  0  0  0  0  0  0  0  0  0  0  0
   -0.9017   -1.5694   -0.1614 C   0  0  0  0  0  0  0  0  0  0  0  0
  1  2  1  0
  2  3  1  0
  3  4  1  0
  4  5  1  0
  5  6  1  0
  6  7  1  0
  7  8  1  0
  8  9  1  0
  9  2  1  0
M  END
>  <target>  (310) 
-1.29

$$$$

     RDKit          3D

 22 25  0  0  0  0  0  0  0  0999 V2000
   -4.4096   -1.3585   -0.5880 C   0  0  0  0  0  0  0  0  0  0  0  0
   -3.6310   -0.1954    0.0193 C   0  0  0  0  0  0  0  0  0  0  0  0
   -4.4160    0.9907   -0.1644 O   0  0  0  0  0  0  0  0  0  0  0  0
   -3.4026   -0.3693    1.5196 C   0  0  0  0  0  0  0  0  0  0  0  0
   -2.3784    0.7102    1.8448 C   0  0  0  0  0  0  0  0  0  0  0  0
   -1.4757    0.8366    0.5955 C   0  0  0  0  0  0  0  0  0  0  0  0
   -0.0203    0.3904    0.9165 C   0  0  0  0  0  0  0  0  0  0  0  0
    0.6987    1.5242    1.6740 C   0  0  0  0  0  0  0  0  0  0  0  0
    2.1444    1.1805    1.9954 C   0  0  0  0  0  0  0  0  0  0  0  0
    2.9116    0.7954    0.7552 C   0  0  0  0  0  0  0  0  0  0  0  0
    4.0891    1.3845    0.4814 C   0  0  0  0  0  0  0  0  0  0  0  0
    4.9398    0.9350   -0.6452 C   0  0  0  0  0  0  0  0  0  0  0  0
    5.9925    1.5232   -0.8801 O   0  0  0  0  0  0  0  0  0  0  0  0
    4.5166   -0.2953   -1.4048 C   0  0  0  0  0  0  0  0  0  0  0  0
    2.9994   -0.3665   -1.4933 C   0  0  0  0  0  0  0  0  0  0  0  0
    2.2907   -0.3065   -0.1081 C   0  0  0  0  0  0  0  0  0  0  0  0
    2.5081   -1.6467    0.6351 C   0  0  0  0  0  0  0  0  0  0  0  0
    0.7639    0.0075   -0.3596 C   0  0  0  0  0  0  0  0  0  0  0  0
    0.0414   -1.1019   -1.1574 C   0  0  0  0  0  0  0  0  0  0  0  0
   -1.4323   -1.2892   -0.7937 C   0  0  0  0  0  0  0  0  0  0  0  0
   -2.1874    0.0324   -0.5411 C   0  0  0  0  0  0  0  0  0  0  0  0
   -2.2274    0.8517   -1.8507 C   0  0  0  0  0  0  0  0  0  0  0  0
  1  2  1  0
  2  3  1  0
  2  4  1  0
  4  5  1  0
  5  6  1  0
  6  7  1  0
  7  8  1  0
  8  9  1  0
  9 10  1  0
 10 11  2  0
 11 12  1  0
 12 13  2  0
 12 14  1  0
 14 15  1  0
 15 16  1  0
 16 17  1  0
 16 18  1  0
 18 19  1  0
 19 20  1  0
 20 21  1  0
 21 22  1  0
 21  2  1  0
 21  6  1  0
 18  7  1  0
 16 10  1  0
M  END
>  <target>  (311) 
-3.9989999999999997

$$$$

     RDKit          3D

 13 13  0  0  0  0  0  0  0  0999 V2000
   -4.7906    0.1439    0.2788 C   0  0  0  0  0  0  0  0  0  0  0  0
   -3.3212   -0.1107    0.5637 C   0  0  0  0  0  0  0  0  0  0  0  0
   -2.5660    0.3963   -0.5354 O   0  0  0  0  0  0  0  0  0  0  0  0
   -1.2081    0.2518   -0.4742 C   0  0  0  0  0  0  0  0  0  0  0  0
   -0.4880   -0.3268    0.5689 C   0  0  0  0  0  0  0  0  0  0  0  0
    0.9103   -0.4114    0.5037 C   0  0  0  0  0  0  0  0  0  0  0  0
    1.6026    0.0776   -0.6047 C   0  0  0  0  0  0  0  0  0  0  0  0
    3.0035    0.0342   -0.7348 N   0  0  0  0  0  0  0  0  0  0  0  0
    3.9007   -0.5857    0.0922 C   0  0  0  0  0  0  0  0  0  0  0  0
    5.1888   -0.3563   -0.3003 N   0  0  0  0  0  0  0  0  0  0  0  0
    3.6826   -1.2812    1.0725 O   0  0  0  0  0  0  0  0  0  0  0  0
    0.8769    0.6619   -1.6473 C   0  0  0  0  0  0  0  0  0  0  0  0
   -0.5172    0.7461   -1.5807 C   0  0  0  0  0  0  0  0  0  0  0  0
  1  2  1  0
  2  3  1  0
  3  4  1  0
  4  5  2  0
  5  6  1  0
  6  7  2  0
  7  8  1  0
  8  9  1  0
  9 10  1  0
  9 11  2  0
  7 12  1  0
 12 13  2  0
 13  4  1  0
M  END
>  <target>  (312) 
-2.17

$$$$

     RDKit          3D

  8  8  0  0  0  0  0  0  0  0999 V2000
   -2.8931    0.2153   -0.3347 C   0  0  0  0  0  0  0  0  0  0  0  0
   -1.4007    0.4761   -0.1390 C   0  0  0  0  0  0  0  0  0  0  0  0
   -0.9012   -0.1796    1.1546 C   0  0  0  0  0  0  0  0  0  0  0  0
    0.6003    0.0249    1.3478 C   0  0  0  0  0  0  0  0  0  0  0  0
    1.4007   -0.4761    0.1390 C   0  0  0  0  0  0  0  0  0  0  0  0
    2.8931   -0.2153    0.3347 C   0  0  0  0  0  0  0  0  0  0  0  0
    0.9012    0.1796   -1.1546 C   0  0  0  0  0  0  0  0  0  0  0  0
   -0.6003   -0.0249   -1.3478 C   0  0  0  0  0  0  0  0  0  0  0  0
  1  2  1  0
  2  3  1  0
  3  4  1  0
  4  5  1  0
  5  6  1  0
  5  7  1  0
  7  8  1  0
  8  2  1  0
M  END
>  <target>  (313) 
-4.47

$$$$

     RDKit          3D

 14 16  0  0  0  0  0  0  0  0999 V2000
    3.3943   -0.3045   -0.2076 C   0  0  0  0  0  0  0  0  0  0  0  0
    2.6609   -1.4546   -0.4070 C   0  0  0  0  0  0  0  0  0  0  0  0
    1.3116   -1.5032   -0.3586 N   0  0  0  0  0  0  0  0  0  0  0  0
    0.6194   -0.3664   -0.1003 C   0  0  0  0  0  0  0  0  0  0  0  0
    1.2990    0.8525    0.1152 C   0  0  0  0  0  0  0  0  0  0  0  0
    2.6994    0.8665    0.0577 C   0  0  0  0  0  0  0  0  0  0  0  0
    0.5835    2.0238    0.3814 C   0  0  0  0  0  0  0  0  0  0  0  0
   -0.8076    1.9934    0.4353 C   0  0  0  0  0  0  0  0  0  0  0  0
   -1.5101    0.8208    0.2300 C   0  0  0  0  0  0  0  0  0  0  0  0
   -2.8528    0.8637    0.2966 N   0  0  0  0  0  0  0  0  0  0  0  0
   -3.5369   -0.2832    0.0956 C   0  0  0  0  0  0  0  0  0  0  0  0
   -2.9383   -1.4961   -0.1739 C   0  0  0  0  0  0  0  0  0  0  0  0
   -1.5508   -1.5320   -0.2409 C   0  0  0  0  0  0  0  0  0  0  0  0
   -0.7904   -0.3639   -0.0390 C   0  0  0  0  0  0  0  0  0  0  0  0
  1  2  2  0
  2  3  1  0
  3  4  2  0
  4  5  1  0
  5  6  2  0
  5  7  1  0
  7  8  2  0
  8  9  1  0
  9 10  2  0
 10 11  1  0
 11 12  2  0
 12 13  1  0
 13 14  2  0
  6  1  1  0
 14  4  1  0
 14  9  1  0
M  END
>  <target>  (314) 
-2.68

$$$$

     RDKit          3D

  6  5  0  0  0  0  0  0  0  0999 V2000
    2.1374   -0.0740    0.0448 C   0  0  0  0  0  0  0  0  0  0  0  0
    0.9786   -0.2072    0.8533 O   0  0  0  0  0  0  0  0  0  0  0  0
   -0.2906   -0.0281    0.2067 C   0  0  0  0  0  0  0  0  0  0  0  0
   -0.4386    1.3885   -0.3612 C   0  0  0  0  0  0  0  0  0  0  0  0
   -1.3355   -0.2284    1.3138 C   0  0  0  0  0  0  0  0  0  0  0  0
   -0.5202   -1.0800   -0.8850 C   0  0  0  0  0  0  0  0  0  0  0  0
  1  2  1  0
  2  3  1  0
  3  4  1  0
  3  5  1  0
  3  6  1  0
M  END
>  <target>  (315) 
-0.24

$$$$

     RDKit          3D

 11 11  0  0  0  0  0  0  0  0999 V2000
   -4.1260    0.1987   -1.4490 C   0  0  0  0  0  0  0  0  0  0  0  0
   -3.5703    0.0123   -0.1535 O   0  0  0  0  0  0  0  0  0  0  0  0
   -2.2073   -0.0597   -0.0710 C   0  0  0  0  0  0  0  0  0  0  0  0
   -1.7083   -0.2328    1.2210 C   0  0  0  0  0  0  0  0  0  0  0  0
   -0.3315   -0.3229    1.4489 C   0  0  0  0  0  0  0  0  0  0  0  0
    0.5720   -0.2291    0.3854 C   0  0  0  0  0  0  0  0  0  0  0  0
    2.0097   -0.3587    0.6592 C   0  0  0  0  0  0  0  0  0  0  0  0
    2.9677    0.3179    0.0061 C   0  0  0  0  0  0  0  0  0  0  0  0
    4.4258    0.1822    0.3039 C   0  0  0  0  0  0  0  0  0  0  0  0
    0.0660   -0.0713   -0.9106 C   0  0  0  0  0  0  0  0  0  0  0  0
   -1.3139    0.0179   -1.1382 C   0  0  0  0  0  0  0  0  0  0  0  0
  1  2  1  0
  2  3  1  0
  3  4  2  0
  4  5  1  0
  5  6  2  0
  6  7  1  0
  7  8  2  3
  8  9  1  0
  6 10  1  0
 10 11  2  0
 11  3  1  0
M  END
>  <target>  (316) 
-3.13

$$$$

     RDKit          3D

 17 16  0  0  0  0  0  0  0  0999 V2000
   -5.8760    2.3290    1.6704 C   0  0  0  0  0  0  0  0  0  0  0  0
   -5.9265    1.8832    0.2177 C   0  0  0  0  0  0  0  0  0  0  0  0
   -5.2002    0.5528    0.0145 C   0  0  0  0  0  0  0  0  0  0  0  0
   -5.2500    0.1129   -1.4501 C   0  0  0  0  0  0  0  0  0  0  0  0
   -4.6380   -1.2702   -1.6931 C   0  0  0  0  0  0  0  0  0  0  0  0
   -3.1632   -1.4239   -1.3057 C   0  0  0  0  0  0  0  0  0  0  0  0
   -2.2378   -0.4598   -2.0518 C   0  0  0  0  0  0  0  0  0  0  0  0
   -0.7508   -0.7491   -1.8233 C   0  0  0  0  0  0  0  0  0  0  0  0
   -0.3040   -0.5212   -0.3773 C   0  0  0  0  0  0  0  0  0  0  0  0
    1.2079   -0.7123   -0.2277 C   0  0  0  0  0  0  0  0  0  0  0  0
    1.6543   -0.4841    1.2182 C   0  0  0  0  0  0  0  0  0  0  0  0
    3.1402   -0.7732    1.4498 C   0  0  0  0  0  0  0  0  0  0  0  0
    4.0703    0.1926    0.7123 C   0  0  0  0  0  0  0  0  0  0  0  0
    5.5358   -0.0683    1.0698 C   0  0  0  0  0  0  0  0  0  0  0  0
    6.4682    0.8941    0.3285 C   0  0  0  0  0  0  0  0  0  0  0  0
    7.9366    0.6298    0.6426 C   0  0  0  0  0  0  0  0  0  0  0  0
    8.2060    0.8381    2.0218 O   0  0  0  0  0  0  0  0  0  0  0  0
  1  2  1  0
  2  3  1  0
  3  4  1  0
  4  5  1  0
  5  6  1  0
  6  7  1  0
  7  8  1  0
  8  9  1  0
  9 10  1  0
 10 11  1  0
 11 12  1  0
 12 13  1  0
 13 14  1  0
 14 15  1  0
 15 16  1  0
 16 17  1  0
M  END
>  <target>  (317) 
-7.0

$$$$

     RDKit          3D

  8  8  0  0  0  0  0  0  0  0999 V2000
   -1.9437   -1.7642   -0.1910 O   0  0  0  0  0  0  0  0  0  0  0  0
   -1.0431   -0.9383   -0.1016 C   0  0  0  0  0  0  0  0  0  0  0  0
    0.3738   -1.3535   -0.1403 C   0  0  0  0  0  0  0  0  0  0  0  0
    1.3195   -0.4167   -0.0391 C   0  0  0  0  0  0  0  0  0  0  0  0
    0.9882    0.9020    0.0976 N   0  0  0  0  0  0  0  0  0  0  0  0
   -0.3021    1.3596    0.1411 C   0  0  0  0  0  0  0  0  0  0  0  0
   -0.5644    2.5509    0.2648 O   0  0  0  0  0  0  0  0  0  0  0  0
   -1.2712    0.4018    0.0377 N   0  0  0  0  0  0  0  0  0  0  0  0
  1  2  2  0
  2  3  1  0
  3  4  2  0
  4  5  1  0
  5  6  1  0
  6  7  2  0
  6  8  1  0
  8  2  1  0
M  END
>  <target>  (318) 
-1.4880000000000002

$$$$

     RDKit          3D

 10 11  0  0  0  0  0  0  0  0999 V2000
   -0.9949    2.0965   -0.3991 N   0  0  0  0  0  0  0  0  0  0  0  0
   -0.8850    0.7500   -0.0914 C   0  0  0  0  0  0  0  0  0  0  0  0
   -1.9938    0.0781    0.2559 N   0  0  0  0  0  0  0  0  0  0  0  0
   -1.8782   -1.2302    0.5728 C   0  0  0  0  0  0  0  0  0  0  0  0
   -0.7702   -1.9824    0.5974 N   0  0  0  0  0  0  0  0  0  0  0  0
    0.3252   -1.2919    0.2365 C   0  0  0  0  0  0  0  0  0  0  0  0
    1.5961   -1.7966    0.1568 N   0  0  0  0  0  0  0  0  0  0  0  0
    2.3366   -0.7896   -0.2505 C   0  0  0  0  0  0  0  0  0  0  0  0
    1.5945    0.3461   -0.4275 N   0  0  0  0  0  0  0  0  0  0  0  0
    0.3003    0.0471   -0.1074 C   0  0  0  0  0  0  0  0  0  0  0  0
  1  2  1  0
  2  3  2  0
  3  4  1  0
  4  5  2  0
  5  6  1  0
  6  7  1  0
  7  8  2  0
  8  9  1  0
  9 10  1  0
 10  2  1  0
 10  6  2  0
M  END
>  <target>  (319) 
-2.12

$$$$

     RDKit          3D

 17 18  0  0  0  0  0  0  0  0999 V2000
    5.2408   -0.3646    0.2501 Cl  0  0  0  0  0  0  0  0  0  0  0  0
    3.5186   -0.2743    0.1495 C   0  0  0  0  0  0  0  0  0  0  0  0
    2.8737    0.6974    0.9170 C   0  0  0  0  0  0  0  0  0  0  0  0
    1.4811    0.8135    0.8764 C   0  0  0  0  0  0  0  0  0  0  0  0
    0.7504    2.0340    1.8610 Cl  0  0  0  0  0  0  0  0  0  0  0  0
    0.7084   -0.0392    0.0655 C   0  0  0  0  0  0  0  0  0  0  0  0
    1.3756   -1.0145   -0.6986 C   0  0  0  0  0  0  0  0  0  0  0  0
    2.7693   -1.1331   -0.6598 C   0  0  0  0  0  0  0  0  0  0  0  0
    3.4973   -2.3613   -1.6318 Cl  0  0  0  0  0  0  0  0  0  0  0  0
   -0.7607    0.0529   -0.0125 C   0  0  0  0  0  0  0  0  0  0  0  0
   -1.5348   -0.7318    0.8637 C   0  0  0  0  0  0  0  0  0  0  0  0
   -2.9282   -0.6809    0.8352 C   0  0  0  0  0  0  0  0  0  0  0  0
   -3.5732    0.1552   -0.0722 C   0  0  0  0  0  0  0  0  0  0  0  0
   -2.8280    0.9423   -0.9547 C   0  0  0  0  0  0  0  0  0  0  0  0
   -3.7092    1.9486   -2.0522 Cl  0  0  0  0  0  0  0  0  0  0  0  0
   -1.4245    0.8960   -0.9319 C   0  0  0  0  0  0  0  0  0  0  0  0
   -0.4935    1.8659   -2.0356 Cl  0  0  0  0  0  0  0  0  0  0  0  0
  1  2  1  0
  2  3  2  0
  3  4  1  0
  4  5  1  0
  4  6  2  0
  6  7  1  0
  7  8  2  0
  8  9  1  0
  6 10  1  0
 10 11  2  0
 11 12  1  0
 12 13  2  0
 13 14  1  0
 14 15  1  0
 14 16  2  0
 16 17  1  0
  8  2  1  0
 16 10  1  0
M  END
>  <target>  (320) 
-7.21

$$$$

     RDKit          3D

 19 21  0  0  0  0  0  0  0  0999 V2000
    5.1829   -0.7924   -1.2087 C   0  0  0  0  0  0  0  0  0  0  0  0
    4.5492    0.0579   -0.2610 O   0  0  0  0  0  0  0  0  0  0  0  0
    3.1828    0.0871   -0.2752 C   0  0  0  0  0  0  0  0  0  0  0  0
    2.6046    0.8932    0.7054 C   0  0  0  0  0  0  0  0  0  0  0  0
    1.2143    1.0150    0.8118 C   0  0  0  0  0  0  0  0  0  0  0  0
    0.3635    0.3286   -0.0672 C   0  0  0  0  0  0  0  0  0  0  0  0
    0.9650   -0.4755   -1.0582 C   0  0  0  0  0  0  0  0  0  0  0  0
    2.3558   -0.5970   -1.1609 C   0  0  0  0  0  0  0  0  0  0  0  0
   -1.1713    0.4097   -0.0072 C   0  0  0  0  0  0  0  0  0  0  0  0
   -1.5968    0.8811   -1.2946 O   0  0  0  0  0  0  0  0  0  0  0  0
   -1.6725    1.3884    1.0506 C   0  0  0  0  0  0  0  0  0  0  0  0
   -3.0029    2.0997    0.9075 C   0  0  0  0  0  0  0  0  0  0  0  0
   -1.7254    2.8864    0.8244 C   0  0  0  0  0  0  0  0  0  0  0  0
   -1.8230   -0.9318    0.2625 C   0  0  0  0  0  0  0  0  0  0  0  0
   -2.9521   -1.3689   -0.4061 C   0  0  0  0  0  0  0  0  0  0  0  0
   -3.5676   -2.5480   -0.1711 N   0  0  0  0  0  0  0  0  0  0  0  0
   -3.0195   -3.3082    0.7864 C   0  0  0  0  0  0  0  0  0  0  0  0
   -1.9384   -2.9979    1.5151 N   0  0  0  0  0  0  0  0  0  0  0  0
   -1.3669   -1.8086    1.2329 C   0  0  0  0  0  0  0  0  0  0  0  0
  1  2  1  0
  2  3  1  0
  3  4  2  0
  4  5  1  0
  5  6  2  0
  6  7  1  0
  7  8  2  0
  6  9  1  0
  9 10  1  0
  9 11  1  0
 11 12  1  0
 12 13  1  0
  9 14  1  0
 14 15  2  0
 15 16  1  0
 16 17  2  0
 17 18  1  0
 18 19  2  0
  8  3  1  0
 13 11  1  0
 19 14  1  0
M  END
>  <target>  (321) 
-2.596

$$$$

     RDKit          3D

 20 24  0  0  0  0  0  0  0  0999 V2000
   -4.6034    0.8138   -0.4456 C   0  0  0  0  0  0  0  0  0  0  0  0
   -3.9693    2.0672   -0.5459 C   0  0  0  0  0  0  0  0  0  0  0  0
   -2.5754    2.1754   -0.5095 C   0  0  0  0  0  0  0  0  0  0  0  0
   -1.8413    1.0121   -0.3719 C   0  0  0  0  0  0  0  0  0  0  0  0
   -2.4812   -0.2524   -0.2706 C   0  0  0  0  0  0  0  0  0  0  0  0
   -3.8588   -0.3617   -0.3063 C   0  0  0  0  0  0  0  0  0  0  0  0
   -1.4295   -1.2513   -0.1382 C   0  0  0  0  0  0  0  0  0  0  0  0
   -1.4637   -2.6261   -0.0058 C   0  0  0  0  0  0  0  0  0  0  0  0
   -0.2458   -3.3110    0.1016 C   0  0  0  0  0  0  0  0  0  0  0  0
    0.9871   -2.6213    0.0761 C   0  0  0  0  0  0  0  0  0  0  0  0
    1.0449   -1.2087   -0.0591 C   0  0  0  0  0  0  0  0  0  0  0  0
   -0.2035   -0.5935   -0.1608 C   0  0  0  0  0  0  0  0  0  0  0  0
   -0.4068    0.7696   -0.3001 C   0  0  0  0  0  0  0  0  0  0  0  0
    0.6833    1.6165   -0.3456 C   0  0  0  0  0  0  0  0  0  0  0  0
    1.9826    1.0756   -0.2494 C   0  0  0  0  0  0  0  0  0  0  0  0
    3.0927    1.9328   -0.2953 C   0  0  0  0  0  0  0  0  0  0  0  0
    4.3916    1.4344   -0.2032 C   0  0  0  0  0  0  0  0  0  0  0  0
    4.6013    0.0686   -0.0635 C   0  0  0  0  0  0  0  0  0  0  0  0
    3.5124   -0.8048   -0.0153 C   0  0  0  0  0  0  0  0  0  0  0  0
    2.1842   -0.3366   -0.1055 C   0  0  0  0  0  0  0  0  0  0  0  0
  1  2  2  0
  2  3  1  0
  3  4  2  0
  4  5  1  0
  5  6  2  0
  5  7  1  0
  7  8  2  0
  8  9  1  0
  9 10  2  0
 10 11  1  0
 11 12  1  0
 12 13  2  0
 13 14  1  0
 14 15  2  0
 15 16  1  0
 16 17  2  0
 17 18  1  0
 18 19  2  0
 19 20  1  0
  6  1  1  0
 13  4  1  0
 12  7  1  0
 20 11  2  0
 20 15  1  0
M  END
>  <target>  (322) 
-8.23

$$$$

     RDKit          3D

 16 17  0  0  0  0  0  0  0  0999 V2000
   -0.0590   -0.7776    1.1638 O   0  0  0  0  0  0  0  0  0  0  0  0
   -0.0058   -0.0761    0.1628 C   0  0  0  0  0  0  0  0  0  0  0  0
   -1.0967    0.5341   -0.4425 N   0  0  0  0  0  0  0  0  0  0  0  0
   -2.4594    0.3842   -0.1095 C   0  0  0  0  0  0  0  0  0  0  0  0
   -3.3721    1.2384   -0.7436 C   0  0  0  0  0  0  0  0  0  0  0  0
   -4.7409    1.1466   -0.4759 C   0  0  0  0  0  0  0  0  0  0  0  0
   -5.2112    0.1958    0.4254 C   0  0  0  0  0  0  0  0  0  0  0  0
   -4.3130   -0.6626    1.0545 C   0  0  0  0  0  0  0  0  0  0  0  0
   -2.9431   -0.5707    0.7865 C   0  0  0  0  0  0  0  0  0  0  0  0
    1.1546    0.2284   -0.5370 N   0  0  0  0  0  0  0  0  0  0  0  0
    2.4809   -0.1007   -0.1866 C   0  0  0  0  0  0  0  0  0  0  0  0
    3.4779    0.1561   -1.1377 C   0  0  0  0  0  0  0  0  0  0  0  0
    4.8179   -0.1319   -0.8635 C   0  0  0  0  0  0  0  0  0  0  0  0
    5.1748   -0.6753    0.3673 C   0  0  0  0  0  0  0  0  0  0  0  0
    4.1924   -0.9268    1.3218 C   0  0  0  0  0  0  0  0  0  0  0  0
    2.8513   -0.6385    1.0472 C   0  0  0  0  0  0  0  0  0  0  0  0
  1  2  2  0
  2  3  1  0
  3  4  1  0
  4  5  2  0
  5  6  1  0
  6  7  2  0
  7  8  1  0
  8  9  2  0
  2 10  1  0
 10 11  1  0
 11 12  2  0
 12 13  1  0
 13 14  2  0
 14 15  1  0
 15 16  2  0
  9  4  1  0
 16 11  1  0
M  END
>  <target>  (323) 
-3.15

$$$$

     RDKit          3D

 17 18  0  0  0  0  0  0  0  0999 V2000
   -2.1621   -2.1220    0.9471 C   0  0  0  0  0  0  0  0  0  0  0  0
   -0.7307   -1.7045    0.6119 C   0  0  0  0  0  0  0  0  0  0  0  0
   -0.5626   -0.2293    0.1510 C   0  0  0  0  0  0  0  0  0  0  0  0
   -1.0353    0.7342    1.2502 C   0  0  0  0  0  0  0  0  0  0  0  0
   -1.0611    0.4589    2.4492 O   0  0  0  0  0  0  0  0  0  0  0  0
   -1.3959    1.9886    0.8384 N   0  0  0  0  0  0  0  0  0  0  0  0
   -1.9238    2.2590   -0.3829 C   0  0  0  0  0  0  0  0  0  0  0  0
   -2.6316    3.2434   -0.5691 O   0  0  0  0  0  0  0  0  0  0  0  0
   -1.7214    1.3387   -1.3605 N   0  0  0  0  0  0  0  0  0  0  0  0
   -1.3859    0.0339   -1.1189 C   0  0  0  0  0  0  0  0  0  0  0  0
   -1.7089   -0.8349   -1.9281 O   0  0  0  0  0  0  0  0  0  0  0  0
    0.9514   -0.0183   -0.1354 C   0  0  0  0  0  0  0  0  0  0  0  0
    1.8372    0.3860    0.8825 C   0  0  0  0  0  0  0  0  0  0  0  0
    3.2003    0.5593    0.6278 C   0  0  0  0  0  0  0  0  0  0  0  0
    3.7114    0.3152   -0.6424 C   0  0  0  0  0  0  0  0  0  0  0  0
    2.8623   -0.1157   -1.6561 C   0  0  0  0  0  0  0  0  0  0  0  0
    1.4987   -0.2900   -1.4046 C   0  0  0  0  0  0  0  0  0  0  0  0
  1  2  1  0
  2  3  1  0
  3  4  1  0
  4  5  2  0
  4  6  1  0
  6  7  1  0
  7  8  2  0
  7  9  1  0
  9 10  1  0
 10 11  2  0
  3 12  1  0
 12 13  2  0
 13 14  1  0
 14 15  2  0
 15 16  1  0
 16 17  2  0
 10  3  1  0
 17 12  1  0
M  END
>  <target>  (324) 
-2.322

$$$$

     RDKit          3D

 15 16  0  0  0  0  0  0  0  0999 V2000
   -5.2069   -0.3637    0.4623 Cl  0  0  0  0  0  0  0  0  0  0  0  0
   -3.4974   -0.2446    0.3107 C   0  0  0  0  0  0  0  0  0  0  0  0
   -2.7568    0.3903    1.3047 C   0  0  0  0  0  0  0  0  0  0  0  0
   -1.3678    0.4854    1.1815 C   0  0  0  0  0  0  0  0  0  0  0  0
   -0.7090   -0.0511    0.0635 C   0  0  0  0  0  0  0  0  0  0  0  0
   -1.4731   -0.6894   -0.9267 C   0  0  0  0  0  0  0  0  0  0  0  0
   -2.8621   -0.7852   -0.8047 C   0  0  0  0  0  0  0  0  0  0  0  0
    0.7526    0.0425   -0.0625 C   0  0  0  0  0  0  0  0  0  0  0  0
    1.5356   -1.0333    0.3985 C   0  0  0  0  0  0  0  0  0  0  0  0
    2.9269   -1.0045    0.3084 C   0  0  0  0  0  0  0  0  0  0  0  0
    3.5616    0.1032   -0.2461 C   0  0  0  0  0  0  0  0  0  0  0  0
    2.8077    1.1844   -0.7121 C   0  0  0  0  0  0  0  0  0  0  0  0
    3.6782    2.5193   -1.3870 Cl  0  0  0  0  0  0  0  0  0  0  0  0
    1.4056    1.1619   -0.6244 C   0  0  0  0  0  0  0  0  0  0  0  0
    0.4684    2.5052   -1.2095 Cl  0  0  0  0  0  0  0  0  0  0  0  0
  1  2  1  0
  2  3  2  0
  3  4  1  0
  4  5  2  0
  5  6  1  0
  6  7  2  0
  5  8  1  0
  8  9  2  0
  9 10  1  0
 10 11  2  0
 11 12  1  0
 12 13  1  0
 12 14  2  0
 14 15  1  0
  7  2  1  0
 14  8  1  0
M  END
>  <target>  (325) 
-6.29

$$$$

     RDKit          3D

 15 15  0  0  0  0  0  0  0  0999 V2000
   -4.2668   -1.5968   -0.7721 C   0  0  0  0  0  0  0  0  0  0  0  0
   -3.7726   -0.6910    0.3585 C   0  0  0  0  0  0  0  0  0  0  0  0
   -4.6209    0.5800    0.4492 C   0  0  0  0  0  0  0  0  0  0  0  0
   -2.2971   -0.3675    0.2093 C   0  0  0  0  0  0  0  0  0  0  0  0
   -1.8021    0.3362   -0.8961 C   0  0  0  0  0  0  0  0  0  0  0  0
   -0.4372    0.6226   -1.0077 C   0  0  0  0  0  0  0  0  0  0  0  0
    0.4619    0.2186   -0.0151 C   0  0  0  0  0  0  0  0  0  0  0  0
    1.8234    0.5292   -0.2064 N   0  0  0  0  0  0  0  0  0  0  0  0
    2.8396    0.4437    0.7193 C   0  0  0  0  0  0  0  0  0  0  0  0
    2.6780    0.2413    1.9199 O   0  0  0  0  0  0  0  0  0  0  0  0
    4.1145    0.6479    0.1768 N   0  0  0  0  0  0  0  0  0  0  0  0
    5.2218    0.6862    1.1178 C   0  0  0  0  0  0  0  0  0  0  0  0
    4.4724    0.2782   -1.1867 C   0  0  0  0  0  0  0  0  0  0  0  0
   -0.0239   -0.4915    1.0816 C   0  0  0  0  0  0  0  0  0  0  0  0
   -1.3897   -0.7786    1.1946 C   0  0  0  0  0  0  0  0  0  0  0  0
  1  2  1  0
  2  3  1  0
  2  4  1  0
  4  5  2  0
  5  6  1  0
  6  7  2  0
  7  8  1  0
  8  9  1  0
  9 10  2  0
  9 11  1  0
 11 12  1  0
 11 13  1  0
  7 14  1  0
 14 15  2  0
 15  4  1  0
M  END
>  <target>  (326) 
-3.536

$$$$

     RDKit          3D

 16 16  0  0  0  0  0  0  0  0999 V2000
   -1.9367   -1.2761   -1.5433 C   0  0  0  0  0  0  0  0  0  0  0  0
   -2.3982   -0.6368   -0.2428 C   0  0  0  0  0  0  0  0  0  0  0  0
   -1.5007    0.4375    0.1861 N   0  0  0  0  0  0  0  0  0  0  0  0
   -1.7571    1.7732   -0.3543 C   0  0  0  0  0  0  0  0  0  0  0  0
   -2.6966    2.5706    0.5368 C   0  0  0  0  0  0  0  0  0  0  0  0
   -0.4329    0.2779    1.0734 C   0  0  0  0  0  0  0  0  0  0  0  0
    0.2482    1.2437    1.4295 O   0  0  0  0  0  0  0  0  0  0  0  0
   -0.1806   -1.1315    1.6124 C   0  0  0  0  0  0  0  0  0  0  0  0
    1.4847   -1.3180    2.3330 S   0  0  0  0  0  0  0  0  0  0  0  0
    2.4638   -1.0208    0.8787 C   0  0  0  0  0  0  0  0  0  0  0  0
    3.6812   -0.3646    0.9819 C   0  0  0  0  0  0  0  0  0  0  0  0
    4.4390   -0.1688   -0.1699 C   0  0  0  0  0  0  0  0  0  0  0  0
    3.9384   -0.6493   -1.3621 C   0  0  0  0  0  0  0  0  0  0  0  0
    4.7947   -0.4704   -2.8330 Cl  0  0  0  0  0  0  0  0  0  0  0  0
    2.7588   -1.2940   -1.4490 N   0  0  0  0  0  0  0  0  0  0  0  0
    2.0159   -1.4843   -0.3111 N   0  0  0  0  0  0  0  0  0  0  0  0
  1  2  1  0
  2  3  1  0
  3  4  1  0
  4  5  1  0
  3  6  1  0
  6  7  2  0
  6  8  1  0
  8  9  1  0
  9 10  1  0
 10 11  2  0
 11 12  1  0
 12 13  2  0
 13 14  1  0
 13 15  1  0
 15 16  2  0
 16 10  1  0
M  END
>  <target>  (327) 
-1.716

$$$$

     RDKit          3D

  7  6  0  0  0  0  0  0  0  0999 V2000
    1.3229    1.4835    0.9288 C   0  0  0  0  0  0  0  0  0  0  0  0
    0.3176    1.2144   -0.1844 C   0  0  0  0  0  0  0  0  0  0  0  0
   -0.3996   -0.1620   -0.1240 C   0  0  0  0  0  0  0  0  0  0  0  0
   -1.3400   -0.2536   -1.3450 C   0  0  0  0  0  0  0  0  0  0  0  0
   -1.2530   -0.2785    1.1516 C   0  0  0  0  0  0  0  0  0  0  0  0
    0.5971   -1.3405   -0.1628 C   0  0  0  0  0  0  0  0  0  0  0  0
    1.4432   -1.2543   -1.3020 O   0  0  0  0  0  0  0  0  0  0  0  0
  1  2  1  0
  2  3  1  0
  3  4  1  0
  3  5  1  0
  3  6  1  0
  6  7  1  0
M  END
>  <target>  (328) 
-1.04

$$$$

     RDKit          3D

  9  8  0  0  0  0  0  0  0  0999 V2000
    4.3332   -0.0540    0.1591 C   0  0  0  0  0  0  0  0  0  0  0  0
    2.9556   -0.6755    0.0165 C   0  0  0  0  0  0  0  0  0  0  0  0
    1.8473    0.3551    0.1928 C   0  0  0  0  0  0  0  0  0  0  0  0
    0.5890   -0.3159    0.0429 O   0  0  0  0  0  0  0  0  0  0  0  0
   -0.4978    0.4968    0.1781 C   0  0  0  0  0  0  0  0  0  0  0  0
   -0.4533    1.6968    0.4070 O   0  0  0  0  0  0  0  0  0  0  0  0
   -1.7569   -0.3190    0.0007 C   0  0  0  0  0  0  0  0  0  0  0  0
   -3.0144    0.5351    0.1408 C   0  0  0  0  0  0  0  0  0  0  0  0
   -4.2749   -0.2948   -0.0394 C   0  0  0  0  0  0  0  0  0  0  0  0
  1  2  1  0
  2  3  1  0
  3  4  1  0
  4  5  1  0
  5  6  2  0
  5  7  1  0
  7  8  1  0
  8  9  1  0
M  END
>  <target>  (329) 
-1.75

$$$$

     RDKit          3D

 16 16  0  0  0  0  0  0  0  0999 V2000
   -2.4761    0.0510    0.0449 C   0  0  0  0  0  0  0  0  0  0  0  0
   -0.9691    0.0198    0.0208 C   0  0  0  0  0  0  0  0  0  0  0  0
   -0.1976    1.2006    0.0563 C   0  0  0  0  0  0  0  0  0  0  0  0
    1.2077    1.1869    0.0695 C   0  0  0  0  0  0  0  0  0  0  0  0
    1.8748   -0.0414    0.0222 C   0  0  0  0  0  0  0  0  0  0  0  0
    1.1555   -1.2387   -0.0490 C   0  0  0  0  0  0  0  0  0  0  0  0
   -0.2490   -1.1908   -0.0605 C   0  0  0  0  0  0  0  0  0  0  0  0
   -0.9443   -2.4678   -0.1721 N   0  0  0  0  0  0  0  0  0  0  0  0
   -1.7250   -2.6026   -1.1212 O   0  0  0  0  0  0  0  0  0  0  0  0
   -0.6825   -3.3207    0.6839 O   0  0  0  0  0  0  0  0  0  0  0  0
    3.3437   -0.0733    0.0299 N   0  0  0  0  0  0  0  0  0  0  0  0
    3.8911   -1.1818   -0.0227 O   0  0  0  0  0  0  0  0  0  0  0  0
    3.9382    1.0105    0.0844 O   0  0  0  0  0  0  0  0  0  0  0  0
   -0.8373    2.5110    0.0712 N   0  0  0  0  0  0  0  0  0  0  0  0
   -1.6096    2.7710   -0.8586 O   0  0  0  0  0  0  0  0  0  0  0  0
   -0.5410    3.2645    1.0057 O   0  0  0  0  0  0  0  0  0  0  0  0
  1  2  1  0
  2  3  2  0
  3  4  1  0
  4  5  2  0
  5  6  1  0
  6  7  2  0
  7  8  1  0
  8  9  1  0
  8 10  2  0
  5 11  1  0
 11 12  1  0
 11 13  2  0
  3 14  1  0
 14 15  1  0
 14 16  2  0
  7  2  1  0
M  CHG  6   8   1   9  -1  11   1  12  -1  14   1  15  -1
M  END
>  <target>  (330) 
-3.22

$$$$

     RDKit          3D

 23 23  0  0  0  0  0  0  0  0999 V2000
   -4.2288   -0.1615   -2.3141 C   0  0  0  0  0  0  0  0  0  0  0  0
   -3.5938    0.3436   -1.0265 C   0  0  0  0  0  0  0  0  0  0  0  0
   -4.2967    1.5983   -0.5274 C   0  0  0  0  0  0  0  0  0  0  0  0
   -2.2370    0.6734   -1.3027 O   0  0  0  0  0  0  0  0  0  0  0  0
   -1.0401    0.0306   -0.3971 P   0  0  0  0  0  0  0  0  0  0  0  0
   -0.9197   -1.8957   -0.6743 S   0  0  0  0  0  0  0  0  0  0  0  0
   -1.5867    0.4596    1.0723 O   0  0  0  0  0  0  0  0  0  0  0  0
   -0.8485    0.1117    2.2349 C   0  0  0  0  0  0  0  0  0  0  0  0
   -1.7433   -0.7373    3.1271 C   0  0  0  0  0  0  0  0  0  0  0  0
   -0.4364    1.3942    2.9426 C   0  0  0  0  0  0  0  0  0  0  0  0
    0.6059    1.2655   -0.8463 S   0  0  0  0  0  0  0  0  0  0  0  0
    0.9171    0.9989   -2.6209 C   0  0  0  0  0  0  0  0  0  0  0  0
    1.9852   -0.0626   -2.9050 C   0  0  0  0  0  0  0  0  0  0  0  0
    3.2922    0.3541   -2.3930 N   0  0  0  0  0  0  0  0  0  0  0  0
    4.2949   -0.7281   -1.6067 S   0  0  0  0  0  0  0  0  0  0  0  0
    5.5427   -0.0341   -1.3764 O   0  0  0  0  0  0  0  0  0  0  0  0
    4.2401   -1.9865   -2.3156 O   0  0  0  0  0  0  0  0  0  0  0  0
    3.4653   -0.8997   -0.0510 C   0  0  0  0  0  0  0  0  0  0  0  0
    3.6377    0.0799    0.9311 C   0  0  0  0  0  0  0  0  0  0  0  0
    2.8716    0.0217    2.0935 C   0  0  0  0  0  0  0  0  0  0  0  0
    1.9321   -0.9995    2.2599 C   0  0  0  0  0  0  0  0  0  0  0  0
    1.7963   -1.9974    1.2940 C   0  0  0  0  0  0  0  0  0  0  0  0
    2.5887   -1.9682    0.1470 C   0  0  0  0  0  0  0  0  0  0  0  0
  1  2  1  0
  2  3  1  0
  2  4  1  0
  4  5  1  0
  5  6  2  0
  5  7  1  0
  7  8  1  0
  8  9  1  0
  8 10  1  0
  5 11  1  0
 11 12  1  0
 12 13  1  0
 13 14  1  0
 14 15  1  0
 15 16  2  0
 15 17  2  0
 15 18  1  0
 18 19  2  0
 19 20  1  0
 20 21  2  0
 21 22  1  0
 22 23  2  0
 23 18  1  0
M  END
>  <target>  (331) 
-4.2

$$$$

     RDKit          3D

  7  7  0  0  0  0  0  0  0  0999 V2000
    0.4759   -1.4700    0.4685 C   0  0  0  0  0  0  0  0  0  0  0  0
   -0.8919   -1.2978   -0.1843 C   0  0  0  0  0  0  0  0  0  0  0  0
   -1.6630   -0.0994    0.3662 C   0  0  0  0  0  0  0  0  0  0  0  0
   -1.1415    1.2656   -0.0695 C   0  0  0  0  0  0  0  0  0  0  0  0
    0.3299    1.5315    0.2437 C   0  0  0  0  0  0  0  0  0  0  0  0
    1.2766    0.7412   -0.6539 C   0  0  0  0  0  0  0  0  0  0  0  0
    1.6061   -0.6679   -0.1699 C   0  0  0  0  0  0  0  0  0  0  0  0
  1  2  1  0
  2  3  1  0
  3  4  1  0
  4  5  1  0
  5  6  1  0
  6  7  1  0
  7  1  1  0
M  END
>  <target>  (332) 
-3.51

$$$$

     RDKit          3D

  6  5  0  0  0  0  0  0  0  0999 V2000
    2.1107    0.2557    0.0268 C   0  0  0  0  0  0  0  0  0  0  0  0
    0.7646    0.2627   -0.6749 C   0  0  0  0  0  0  0  0  0  0  0  0
   -0.3706   -0.1079    0.2717 C   0  0  0  0  0  0  0  0  0  0  0  0
   -1.5971   -0.0763   -0.4704 O   0  0  0  0  0  0  0  0  0  0  0  0
   -2.6941   -0.3898    0.2621 C   0  0  0  0  0  0  0  0  0  0  0  0
   -2.7206   -0.6828    1.4463 O   0  0  0  0  0  0  0  0  0  0  0  0
  1  2  1  0
  2  3  1  0
  3  4  1  0
  4  5  1  0
  5  6  2  0
M  END
>  <target>  (333) 
-0.49

$$$$

     RDKit          3D

 10 10  0  0  0  0  0  0  0  0999 V2000
   -1.8542   -0.0508    1.6148 C   0  0  0  0  0  0  0  0  0  0  0  0
   -1.3840    0.1103    0.1658 C   0  0  0  0  0  0  0  0  0  0  0  0
   -2.1988   -0.7829   -0.7750 C   0  0  0  0  0  0  0  0  0  0  0  0
    0.1123   -0.1502    0.0298 C   0  0  0  0  0  0  0  0  0  0  0  0
    0.6247   -1.4245    0.3463 C   0  0  0  0  0  0  0  0  0  0  0  0
    1.9860   -1.7081    0.2369 C   0  0  0  0  0  0  0  0  0  0  0  0
    2.8654   -0.7228   -0.1917 C   0  0  0  0  0  0  0  0  0  0  0  0
    2.3826    0.5449   -0.5105 C   0  0  0  0  0  0  0  0  0  0  0  0
    1.0130    0.8480   -0.4058 C   0  0  0  0  0  0  0  0  0  0  0  0
    0.5607    2.2374   -0.7663 C   0  0  0  0  0  0  0  0  0  0  0  0
  1  2  1  0
  2  3  1  0
  2  4  1  0
  4  5  2  0
  5  6  1  0
  6  7  2  0
  7  8  1  0
  8  9  2  0
  9 10  1  0
  9  4  1  0
M  END
>  <target>  (334) 
-3.76

$$$$

     RDKit          3D

  8  8  0  0  0  0  0  0  0  0999 V2000
    2.3365    0.1396   -0.0934 N   0  0  0  0  0  0  0  0  0  0  0  0
    0.9457    0.0296    0.0209 C   0  0  0  0  0  0  0  0  0  0  0  0
    0.3208   -1.2065   -0.1731 C   0  0  0  0  0  0  0  0  0  0  0  0
   -1.0728   -1.3120   -0.1799 C   0  0  0  0  0  0  0  0  0  0  0  0
   -1.8566   -0.1696   -0.0336 C   0  0  0  0  0  0  0  0  0  0  0  0
   -1.2397    1.0718    0.0996 C   0  0  0  0  0  0  0  0  0  0  0  0
   -2.2034    2.4913    0.2432 Cl  0  0  0  0  0  0  0  0  0  0  0  0
    0.1523    1.1763    0.1064 C   0  0  0  0  0  0  0  0  0  0  0  0
  1  2  1  0
  2  3  2  0
  3  4  1  0
  4  5  2  0
  5  6  1  0
  6  7  1  0
  6  8  2  0
  8  2  1  0
M  END
>  <target>  (335) 
-1.37

$$$$

     RDKit          3D

  7  6  0  0  0  0  0  0  0  0999 V2000
   -2.1734    1.5013   -0.0902 C   0  0  0  0  0  0  0  0  0  0  0  0
   -1.2358    0.3110   -0.3150 C   0  0  0  0  0  0  0  0  0  0  0  0
   -1.8950   -0.9681    0.2018 C   0  0  0  0  0  0  0  0  0  0  0  0
    0.1237    0.5876    0.3581 C   0  0  0  0  0  0  0  0  0  0  0  0
    1.1939   -0.5103    0.1936 C   0  0  0  0  0  0  0  0  0  0  0  0
    2.4675   -0.1043    0.9415 C   0  0  0  0  0  0  0  0  0  0  0  0
    1.5250   -0.7895   -1.2728 C   0  0  0  0  0  0  0  0  0  0  0  0
  1  2  1  0
  2  3  1  0
  2  4  1  0
  4  5  1  0
  5  6  1  0
  5  7  1  0
M  END
>  <target>  (336) 
-4.26

$$$$

     RDKit          3D

 13 15  0  0  0  0  0  0  0  0999 V2000
    0.1207    1.7018   -0.6609 O   0  0  0  0  0  0  0  0  0  0  0  0
   -1.0256    1.0032   -0.4340 C   0  0  0  0  0  0  0  0  0  0  0  0
   -2.3161    1.5169   -0.5443 C   0  0  0  0  0  0  0  0  0  0  0  0
   -3.3664    0.6354   -0.2685 C   0  0  0  0  0  0  0  0  0  0  0  0
   -3.1194   -0.6902    0.0977 C   0  0  0  0  0  0  0  0  0  0  0  0
   -1.8089   -1.1791    0.2005 C   0  0  0  0  0  0  0  0  0  0  0  0
   -0.7365   -0.3087   -0.0727 C   0  0  0  0  0  0  0  0  0  0  0  0
    0.6854   -0.4120   -0.0813 C   0  0  0  0  0  0  0  0  0  0  0  0
    1.6239   -1.4285    0.1797 C   0  0  0  0  0  0  0  0  0  0  0  0
    2.9899   -1.1341    0.0607 C   0  0  0  0  0  0  0  0  0  0  0  0
    3.4215    0.1422   -0.3097 C   0  0  0  0  0  0  0  0  0  0  0  0
    2.5065    1.1665   -0.5736 C   0  0  0  0  0  0  0  0  0  0  0  0
    1.1567    0.8446   -0.4473 C   0  0  0  0  0  0  0  0  0  0  0  0
  1  2  1  0
  2  3  2  0
  3  4  1  0
  4  5  2  0
  5  6  1  0
  6  7  2  0
  7  8  1  0
  8  9  2  0
  9 10  1  0
 10 11  2  0
 11 12  1  0
 12 13  2  0
 13  1  1  0
  7  2  1  0
 13  8  1  0
M  END
>  <target>  (337) 
-4.6

$$$$

     RDKit          3D

 19 20  0  0  0  0  0  0  0  0999 V2000
   -5.6467   -0.5365    0.0862 C   0  0  0  0  0  0  0  0  0  0  0  0
   -4.3926    0.2194    0.4794 C   0  0  0  0  0  0  0  0  0  0  0  0
   -3.2916   -0.3463   -0.2249 O   0  0  0  0  0  0  0  0  0  0  0  0
   -2.0683    0.3387    0.0501 C   0  0  0  0  0  0  0  0  0  0  0  0
   -1.6845    0.2290    1.4467 O   0  0  0  0  0  0  0  0  0  0  0  0
   -0.3156    0.2642    1.4060 C   0  0  0  0  0  0  0  0  0  0  0  0
    0.4849    0.4774    2.5070 C   0  0  0  0  0  0  0  0  0  0  0  0
    1.8682    0.4835    2.3138 C   0  0  0  0  0  0  0  0  0  0  0  0
    2.4222    0.2698    1.0368 C   0  0  0  0  0  0  0  0  0  0  0  0
    3.7942    0.2975    0.9939 O   0  0  0  0  0  0  0  0  0  0  0  0
    4.6277    0.2294   -0.4049 S   0  0  0  0  0  0  0  0  0  0  0  0
    6.2430    0.4087    0.3076 C   0  0  0  0  0  0  0  0  0  0  0  0
    4.5294   -1.1036   -0.9648 O   0  0  0  0  0  0  0  0  0  0  0  0
    4.3511    1.4127   -1.1946 O   0  0  0  0  0  0  0  0  0  0  0  0
    1.5880    0.0345   -0.0604 C   0  0  0  0  0  0  0  0  0  0  0  0
    0.2147    0.0372    0.1439 C   0  0  0  0  0  0  0  0  0  0  0  0
   -0.9048   -0.2348   -0.8108 C   0  0  0  0  0  0  0  0  0  0  0  0
   -1.0278   -1.7458   -1.0596 C   0  0  0  0  0  0  0  0  0  0  0  0
   -0.7832    0.5079   -2.1425 C   0  0  0  0  0  0  0  0  0  0  0  0
  1  2  1  0
  2  3  1  0
  3  4  1  0
  4  5  1  0
  5  6  1  0
  6  7  2  0
  7  8  1  0
  8  9  2  0
  9 10  1  0
 10 11  1  0
 11 12  1  0
 11 13  2  0
 11 14  2  0
  9 15  1  0
 15 16  2  0
 16 17  1  0
 17 18  1  0
 17 19  1  0
 16  6  1  0
 17  4  1  0
M  END
>  <target>  (338) 
-3.42

$$$$

     RDKit          3D

 16 16  0  0  0  0  0  0  0  0999 V2000
    3.5786    1.5612   -1.1184 C   0  0  0  0  0  0  0  0  0  0  0  0
    2.8384    0.5043   -0.4484 N   0  0  0  0  0  0  0  0  0  0  0  0
    3.5144   -0.0970    0.6942 C   0  0  0  0  0  0  0  0  0  0  0  0
    1.4477    0.5217   -0.5995 C   0  0  0  0  0  0  0  0  0  0  0  0
    0.8771    1.4196   -1.2132 O   0  0  0  0  0  0  0  0  0  0  0  0
    0.8130   -0.5628   -0.0354 N   0  0  0  0  0  0  0  0  0  0  0  0
   -0.5746   -0.7537    0.1202 C   0  0  0  0  0  0  0  0  0  0  0  0
   -1.0143   -2.0397    0.4549 C   0  0  0  0  0  0  0  0  0  0  0  0
   -2.3733   -2.3034    0.6349 C   0  0  0  0  0  0  0  0  0  0  0  0
   -3.3066   -1.2788    0.4917 C   0  0  0  0  0  0  0  0  0  0  0  0
   -2.8868    0.0216    0.1779 C   0  0  0  0  0  0  0  0  0  0  0  0
   -1.5151    0.2714   -0.0087 C   0  0  0  0  0  0  0  0  0  0  0  0
   -3.8872    1.1378    0.0091 C   0  0  0  0  0  0  0  0  0  0  0  0
   -5.0765    0.8866    0.6283 F   0  0  0  0  0  0  0  0  0  0  0  0
   -3.4554    2.3259    0.5160 F   0  0  0  0  0  0  0  0  0  0  0  0
   -4.1931    1.3720   -1.2965 F   0  0  0  0  0  0  0  0  0  0  0  0
  1  2  1  0
  2  3  1  0
  2  4  1  0
  4  5  2  0
  4  6  1  0
  6  7  1  0
  7  8  2  0
  8  9  1  0
  9 10  2  0
 10 11  1  0
 11 12  2  0
 11 13  1  0
 13 14  1  0
 13 15  1  0
 13 16  1  0
 12  7  1  0
M  END
>  <target>  (339) 
-3.43

$$$$

     RDKit          3D

 14 16  0  0  0  0  0  0  0  0999 V2000
   -3.6661   -0.3081    0.1859 C   0  0  0  0  0  0  0  0  0  0  0  0
   -3.5267    1.0733    0.1222 C   0  0  0  0  0  0  0  0  0  0  0  0
   -2.2515    1.6409    0.0385 C   0  0  0  0  0  0  0  0  0  0  0  0
   -1.1030    0.8607    0.0165 C   0  0  0  0  0  0  0  0  0  0  0  0
    0.0987    1.4584   -0.0649 N   0  0  0  0  0  0  0  0  0  0  0  0
    1.2086    0.6996   -0.0860 C   0  0  0  0  0  0  0  0  0  0  0  0
    2.4515    1.3132   -0.1701 C   0  0  0  0  0  0  0  0  0  0  0  0
    3.6383    0.5742   -0.1956 C   0  0  0  0  0  0  0  0  0  0  0  0
    3.5901   -0.8136   -0.1360 C   0  0  0  0  0  0  0  0  0  0  0  0
    2.3566   -1.4555   -0.0512 C   0  0  0  0  0  0  0  0  0  0  0  0
    1.1662   -0.7065   -0.0259 C   0  0  0  0  0  0  0  0  0  0  0  0
   -0.0892   -1.3181    0.0587 C   0  0  0  0  0  0  0  0  0  0  0  0
   -1.2504   -0.5381    0.0813 C   0  0  0  0  0  0  0  0  0  0  0  0
   -2.5306   -1.1150    0.1656 C   0  0  0  0  0  0  0  0  0  0  0  0
  1  2  2  0
  2  3  1  0
  3  4  2  0
  4  5  1  0
  5  6  2  0
  6  7  1  0
  7  8  2  0
  8  9  1  0
  9 10  2  0
 10 11  1  0
 11 12  2  0
 12 13  1  0
 13 14  2  0
 11  6  1  0
 13  4  1  0
 14  1  1  0
M  END
>  <target>  (340) 
-3.67

$$$$

     RDKit          3D

 26 29  0  0  0  0  0  0  0  0999 V2000
    2.8654   -1.5672   -1.1328 C   0  0  0  0  0  0  0  0  0  0  0  0
    1.8821   -0.8694   -0.1650 C   0  0  0  0  0  0  0  0  0  0  0  0
    1.5385    0.5104   -0.7349 C   0  0  0  0  0  0  0  0  0  0  0  0
    0.7313    0.3941   -2.0007 C   0  0  0  0  0  0  0  0  0  0  0  0
    1.1355    0.8562   -3.0678 O   0  0  0  0  0  0  0  0  0  0  0  0
   -0.6354   -0.2481   -1.8897 C   0  0  0  0  0  0  0  0  0  0  0  0
   -0.4877   -1.6121   -1.1505 C   0  0  0  0  0  0  0  0  0  0  0  0
   -1.8639   -2.1756   -0.7565 C   0  0  0  0  0  0  0  0  0  0  0  0
   -2.7445   -1.2180    0.0541 C   0  0  0  0  0  0  0  0  0  0  0  0
   -2.2846    0.2194   -0.0285 C   0  0  0  0  0  0  0  0  0  0  0  0
   -2.2131    0.9553    1.0949 C   0  0  0  0  0  0  0  0  0  0  0  0
   -1.5469    2.2597    0.9724 C   0  0  0  0  0  0  0  0  0  0  0  0
   -0.6444    2.5647    1.7529 O   0  0  0  0  0  0  0  0  0  0  0  0
   -1.9244    3.0428   -0.2502 C   0  0  0  0  0  0  0  0  0  0  0  0
   -1.3922    2.2402   -1.4296 C   0  0  0  0  0  0  0  0  0  0  0  0
   -1.7921    0.7099   -1.3987 C   0  0  0  0  0  0  0  0  0  0  0  0
   -2.9911    0.5926   -2.3845 C   0  0  0  0  0  0  0  0  0  0  0  0
    0.5922   -1.7419   -0.0282 C   0  0  0  0  0  0  0  0  0  0  0  0
    0.1691   -1.5422    1.4241 C   0  0  0  0  0  0  0  0  0  0  0  0
    1.4851   -1.5915    2.1764 C   0  0  0  0  0  0  0  0  0  0  0  0
    2.4488   -0.7700    1.3159 C   0  0  0  0  0  0  0  0  0  0  0  0
    3.7215   -1.4355    1.4168 O   0  0  0  0  0  0  0  0  0  0  0  0
    2.7806    0.6604    1.8167 C   0  0  0  0  0  0  0  0  0  0  0  0
    3.7799    1.2372    1.3611 O   0  0  0  0  0  0  0  0  0  0  0  0
    1.9257    1.3362    2.8834 C   0  0  0  0  0  0  0  0  0  0  0  0
    0.6212    1.6868    2.4553 O   0  0  0  0  0  0  0  0  0  0  0  0
  1  2  1  0
  2  3  1  0
  3  4  1  0
  4  5  2  0
  4  6  1  0
  6  7  1  0
  7  8  1  0
  8  9  1  0
  9 10  1  0
 10 11  2  0
 11 12  1  0
 12 13  2  0
 12 14  1  0
 14 15  1  0
 15 16  1  0
 16 17  1  0
  7 18  1  0
 18 19  1  0
 19 20  1  0
 20 21  1  0
 21 22  1  0
 21 23  1  0
 23 24  2  0
 23 25  1  0
 25 26  1  0
 21  2  1  0
 18  2  1  0
 16  6  1  0
 16 10  1  0
M  END
>  <target>  (341) 
-3.11

$$$$

     RDKit          3D

 12 12  0  0  0  0  0  0  0  0999 V2000
   -3.3485    0.4034   -1.1299 O   0  0  0  0  0  0  0  0  0  0  0  0
   -2.6570   -0.2116   -0.0391 C   0  0  0  0  0  0  0  0  0  0  0  0
   -1.1708   -0.3277   -0.3885 C   0  0  0  0  0  0  0  0  0  0  0  0
   -0.6716    1.0168   -0.5781 O   0  0  0  0  0  0  0  0  0  0  0  0
    0.7022    1.0362   -0.9263 C   0  0  0  0  0  0  0  0  0  0  0  0
    1.1110    2.3897   -1.0730 O   0  0  0  0  0  0  0  0  0  0  0  0
    1.5712    0.3958    0.1650 C   0  0  0  0  0  0  0  0  0  0  0  0
    2.9572    0.3833   -0.2152 O   0  0  0  0  0  0  0  0  0  0  0  0
    1.1108   -1.0416    0.4005 C   0  0  0  0  0  0  0  0  0  0  0  0
    1.8281   -1.6033    1.5116 O   0  0  0  0  0  0  0  0  0  0  0  0
   -0.3896   -1.0883    0.6969 C   0  0  0  0  0  0  0  0  0  0  0  0
   -0.6197   -0.5137    1.9903 O   0  0  0  0  0  0  0  0  0  0  0  0
  1  2  1  0
  2  3  1  0
  3  4  1  0
  4  5  1  0
  5  6  1  0
  5  7  1  0
  7  8  1  0
  7  9  1  0
  9 10  1  0
  9 11  1  0
 11 12  1  0
 11  3  1  0
M  END
>  <target>  (342) 
0.74

$$$$

     RDKit          3D

  8  8  0  0  0  0  0  0  0  0999 V2000
   -2.1400   -0.8918    0.2633 C   0  0  0  0  0  0  0  0  0  0  0  0
   -0.8225   -0.2021    0.0657 C   0  0  0  0  0  0  0  0  0  0  0  0
   -0.7616    1.1953   -0.0243 C   0  0  0  0  0  0  0  0  0  0  0  0
    0.4665    1.8423   -0.1767 C   0  0  0  0  0  0  0  0  0  0  0  0
    1.6439    1.0990   -0.2299 C   0  0  0  0  0  0  0  0  0  0  0  0
    1.5866   -0.2852   -0.1261 C   0  0  0  0  0  0  0  0  0  0  0  0
    2.7627   -0.9744   -0.1755 O   0  0  0  0  0  0  0  0  0  0  0  0
    0.3673   -0.9419    0.0262 C   0  0  0  0  0  0  0  0  0  0  0  0
  1  2  1  0
  2  3  2  0
  3  4  1  0
  4  5  2  0
  5  6  1  0
  6  7  1  0
  6  8  2  0
  8  2  1  0
M  END
>  <target>  (343) 
-0.68

$$$$

     RDKit          3D

 24 26  0  0  0  0  0  0  0  0999 V2000
   -1.5252   -2.5372    0.1146 C   0  0  0  0  0  0  0  0  0  0  0  0
   -2.1179   -1.2207   -0.3682 C   0  0  0  0  0  0  0  0  0  0  0  0
   -2.9948   -0.5560    0.7209 C   0  0  0  0  0  0  0  0  0  0  0  0
   -2.7390    0.8850    0.4412 C   0  0  0  0  0  0  0  0  0  0  0  0
   -3.4210    1.9936    0.9137 C   0  0  0  0  0  0  0  0  0  0  0  0
   -2.9681    3.2569    0.5300 C   0  0  0  0  0  0  0  0  0  0  0  0
   -1.8501    3.3916   -0.3073 C   0  0  0  0  0  0  0  0  0  0  0  0
   -1.1708    2.2625   -0.7717 C   0  0  0  0  0  0  0  0  0  0  0  0
   -1.6210    1.0081   -0.3873 C   0  0  0  0  0  0  0  0  0  0  0  0
   -1.0371   -0.2526   -0.7039 N   0  0  0  0  0  0  0  0  0  0  0  0
   -0.5237   -0.2992   -2.0118 N   0  0  0  0  0  0  0  0  0  0  0  0
    0.6373   -1.0003   -2.2813 C   0  0  0  0  0  0  0  0  0  0  0  0
    0.8211   -1.4923   -3.3932 O   0  0  0  0  0  0  0  0  0  0  0  0
    1.6767   -1.1629   -1.2260 C   0  0  0  0  0  0  0  0  0  0  0  0
    2.4680   -2.3165   -1.2484 C   0  0  0  0  0  0  0  0  0  0  0  0
    3.4681   -2.5020   -0.2902 C   0  0  0  0  0  0  0  0  0  0  0  0
    3.6934   -1.5358    0.6970 C   0  0  0  0  0  0  0  0  0  0  0  0
    4.9640   -1.8500    1.8217 Cl  0  0  0  0  0  0  0  0  0  0  0  0
    2.9131   -0.3777    0.7140 C   0  0  0  0  0  0  0  0  0  0  0  0
    1.9177   -0.1846   -0.2550 C   0  0  0  0  0  0  0  0  0  0  0  0
    3.1762    0.8424    1.9567 S   0  0  0  0  0  0  0  0  0  0  0  0
    1.9127    1.9402    1.7704 N   0  0  0  0  0  0  0  0  0  0  0  0
    2.9325    0.2538    3.2521 O   0  0  0  0  0  0  0  0  0  0  0  0
    4.3681    1.5867    1.6281 O   0  0  0  0  0  0  0  0  0  0  0  0
  1  2  1  0
  2  3  1  0
  3  4  1  0
  4  5  2  0
  5  6  1  0
  6  7  2  0
  7  8  1  0
  8  9  2  0
  9 10  1  0
 10 11  1  0
 11 12  1  0
 12 13  2  0
 12 14  1  0
 14 15  2  0
 15 16  1  0
 16 17  2  0
 17 18  1  0
 17 19  1  0
 19 20  2  0
 19 21  1  0
 21 22  1  0
 21 23  2  0
 21 24  2  0
  9  4  1  0
 10  2  1  0
 20 14  1  0
M  END
>  <target>  (344) 
-3.5860000000000003

$$$$

     RDKit          3D

 29 31  0  0  0  0  0  0  0  0999 V2000
   -3.1578    2.8075   -3.5632 C   0  0  0  0  0  0  0  0  0  0  0  0
   -1.7998    3.2416   -3.0259 C   0  0  0  0  0  0  0  0  0  0  0  0
   -0.9280    2.0522   -2.5967 C   0  0  0  0  0  0  0  0  0  0  0  0
    0.4920    2.5073   -2.2772 C   0  0  0  0  0  0  0  0  0  0  0  0
   -1.4982    1.3507   -1.3756 C   0  0  0  0  0  0  0  0  0  0  0  0
   -2.1684    1.8877   -0.5053 O   0  0  0  0  0  0  0  0  0  0  0  0
   -1.1379    0.0377   -1.3914 O   0  0  0  0  0  0  0  0  0  0  0  0
   -1.6764   -0.7952   -0.3425 C   0  0  0  0  0  0  0  0  0  0  0  0
   -2.9871   -1.4087   -0.8437 C   0  0  0  0  0  0  0  0  0  0  0  0
   -3.6050   -2.3344    0.2123 C   0  0  0  0  0  0  0  0  0  0  0  0
   -4.7383   -3.1520   -0.4087 C   0  0  0  0  0  0  0  0  0  0  0  0
   -2.5816   -3.2380    0.8549 C   0  0  0  0  0  0  0  0  0  0  0  0
   -1.2527   -3.0675    0.7406 C   0  0  0  0  0  0  0  0  0  0  0  0
   -0.3239   -3.9942    1.3599 C   0  0  0  0  0  0  0  0  0  0  0  0
    1.0015   -3.7893    1.3693 C   0  0  0  0  0  0  0  0  0  0  0  0
    1.6665   -2.5642    0.7913 C   0  0  0  0  0  0  0  0  0  0  0  0
    2.3466   -2.9245   -0.5347 C   0  0  0  0  0  0  0  0  0  0  0  0
    0.6648   -1.3793    0.6338 C   0  0  0  0  0  0  0  0  0  0  0  0
    0.3826   -0.6628    1.9874 C   0  0  0  0  0  0  0  0  0  0  0  0
    1.6017   -0.1289    2.7516 C   0  0  0  0  0  0  0  0  0  0  0  0
    2.5265    0.8145    1.9700 C   0  0  0  0  0  0  0  0  0  0  0  0
    1.8158    2.0772    1.5060 C   0  0  0  0  0  0  0  0  0  0  0  0
    2.8264    3.0067    0.8636 C   0  0  0  0  0  0  0  0  0  0  0  0
    3.3236    2.4070   -0.3311 O   0  0  0  0  0  0  0  0  0  0  0  0
    3.9612    3.3161    1.8152 C   0  0  0  0  0  0  0  0  0  0  0  0
    4.4897    2.1264    2.5702 C   0  0  0  0  0  0  0  0  0  0  0  0
    5.6275    2.1267    3.0335 O   0  0  0  0  0  0  0  0  0  0  0  0
    3.6243    1.1294    2.8545 O   0  0  0  0  0  0  0  0  0  0  0  0
   -0.6470   -1.9093   -0.0388 C   0  0  0  0  0  0  0  0  0  0  0  0
  1  2  1  0
  2  3  1  0
  3  4  1  0
  3  5  1  0
  5  6  2  0
  5  7  1  0
  7  8  1  0
  8  9  1  0
  9 10  1  0
 10 11  1  0
 10 12  1  0
 12 13  2  0
 13 14  1  0
 14 15  2  0
 15 16  1  0
 16 17  1  0
 16 18  1  0
 18 19  1  0
 19 20  1  0
 20 21  1  0
 21 22  1  0
 22 23  1  0
 23 24  1  0
 23 25  1  0
 25 26  1  0
 26 27  2  0
 26 28  1  0
 18 29  1  0
 28 21  1  0
 29  8  1  0
 29 13  1  0
M  END
>  <target>  (345) 
-6.005

$$$$

     RDKit          3D

 12 12  0  0  0  0  0  0  0  0999 V2000
   -3.2276   -1.5481   -0.4689 O   0  0  0  0  0  0  0  0  0  0  0  0
   -2.8266   -0.3979   -0.2441 N   0  0  0  0  0  0  0  0  0  0  0  0
   -3.5593    0.5928   -0.1172 O   0  0  0  0  0  0  0  0  0  0  0  0
   -1.3763   -0.1937   -0.1188 C   0  0  0  0  0  0  0  0  0  0  0  0
   -0.5061   -1.2863   -0.2550 C   0  0  0  0  0  0  0  0  0  0  0  0
    0.8746   -1.0920   -0.1358 C   0  0  0  0  0  0  0  0  0  0  0  0
    1.3763    0.1937    0.1189 C   0  0  0  0  0  0  0  0  0  0  0  0
    0.5061    1.2863    0.2550 C   0  0  0  0  0  0  0  0  0  0  0  0
   -0.8746    1.0920    0.1358 C   0  0  0  0  0  0  0  0  0  0  0  0
    2.8266    0.3979    0.2441 N   0  0  0  0  0  0  0  0  0  0  0  0
    3.5593   -0.5928    0.1172 O   0  0  0  0  0  0  0  0  0  0  0  0
    3.2276    1.5481    0.4689 O   0  0  0  0  0  0  0  0  0  0  0  0
  1  2  1  0
  2  3  2  0
  2  4  1  0
  4  5  2  0
  5  6  1  0
  6  7  2  0
  7  8  1  0
  8  9  2  0
  7 10  1  0
 10 11  1  0
 10 12  2  0
  9  4  1  0
M  CHG  4   1  -1   2   1  10   1  11  -1
M  END
>  <target>  (346) 
-3.39

$$$$

     RDKit          3D

 19 21  0  0  0  0  0  0  0  0999 V2000
   -3.1594   -2.1335   -0.1337 C   0  0  0  0  0  0  0  0  0  0  0  0
   -1.6383   -1.9874   -0.0784 C   0  0  0  0  0  0  0  0  0  0  0  0
   -1.1256   -0.5188   -0.1697 C   0  0  0  0  0  0  0  0  0  0  0  0
   -1.6904    0.2416    1.0286 C   0  0  0  0  0  0  0  0  0  0  0  0
   -1.5915   -0.1510    2.1917 O   0  0  0  0  0  0  0  0  0  0  0  0
   -2.3269    1.4241    0.7758 N   0  0  0  0  0  0  0  0  0  0  0  0
   -2.7307    1.8768   -0.4381 C   0  0  0  0  0  0  0  0  0  0  0  0
   -3.4469    2.8660   -0.5482 O   0  0  0  0  0  0  0  0  0  0  0  0
   -2.3221    1.1714   -1.5232 N   0  0  0  0  0  0  0  0  0  0  0  0
   -1.5658    0.0325   -1.5257 C   0  0  0  0  0  0  0  0  0  0  0  0
   -1.2704   -0.4901   -2.6010 O   0  0  0  0  0  0  0  0  0  0  0  0
    0.4184   -0.3868   -0.1123 C   0  0  0  0  0  0  0  0  0  0  0  0
    1.2789   -1.4270   -0.0232 C   0  0  0  0  0  0  0  0  0  0  0  0
    2.7791   -1.2526   -0.0022 C   0  0  0  0  0  0  0  0  0  0  0  0
    3.2207    0.2238    0.0042 C   0  0  0  0  0  0  0  0  0  0  0  0
    2.9119    0.8998    1.3520 C   0  0  0  0  0  0  0  0  0  0  0  0
    1.4947    1.4747    1.2085 C   0  0  0  0  0  0  0  0  0  0  0  0
    1.0179    1.0257   -0.1826 C   0  0  0  0  0  0  0  0  0  0  0  0
    2.3378    1.0066   -0.9663 C   0  0  0  0  0  0  0  0  0  0  0  0
  1  2  1  0
  2  3  1  0
  3  4  1  0
  4  5  2  0
  4  6  1  0
  6  7  1  0
  7  8  2  0
  7  9  1  0
  9 10  1  0
 10 11  2  0
  3 12  1  0
 12 13  2  0
 13 14  1  0
 14 15  1  0
 15 16  1  0
 16 17  1  0
 17 18  1  0
 18 19  1  0
 10  3  1  0
 18 12  1  0
 19 15  1  0
M  END
>  <target>  (347) 
-2.696

$$$$

     RDKit          3D

 14 13  0  0  0  0  0  0  0  0999 V2000
   -6.0329   -1.0219   -0.1296 C   0  0  0  0  0  0  0  0  0  0  0  0
   -4.7844   -0.1714    0.0493 C   0  0  0  0  0  0  0  0  0  0  0  0
   -3.8961   -0.7145    1.1691 C   0  0  0  0  0  0  0  0  0  0  0  0
   -2.6822    0.1702    1.4668 C   0  0  0  0  0  0  0  0  0  0  0  0
   -1.6770    0.2318    0.3145 C   0  0  0  0  0  0  0  0  0  0  0  0
   -0.4335    1.0332    0.7068 C   0  0  0  0  0  0  0  0  0  0  0  0
    0.5718    1.0997   -0.4448 C   0  0  0  0  0  0  0  0  0  0  0  0
    1.8159    1.9005   -0.0499 C   0  0  0  0  0  0  0  0  0  0  0  0
    2.8157    2.0276   -1.1957 C   0  0  0  0  0  0  0  0  0  0  0  0
    3.4506    0.7090   -1.5586 C   0  0  0  0  0  0  0  0  0  0  0  0
    3.2431    0.1130   -2.6067 O   0  0  0  0  0  0  0  0  0  0  0  0
    4.2801    0.2887   -0.5645 O   0  0  0  0  0  0  0  0  0  0  0  0
    4.9207   -0.9654   -0.8262 C   0  0  0  0  0  0  0  0  0  0  0  0
    5.7925   -1.3090    0.3657 C   0  0  0  0  0  0  0  0  0  0  0  0
  1  2  1  0
  2  3  1  0
  3  4  1  0
  4  5  1  0
  5  6  1  0
  6  7  1  0
  7  8  1  0
  8  9  1  0
  9 10  1  0
 10 11  2  0
 10 12  1  0
 12 13  1  0
 13 14  1  0
M  END
>  <target>  (348) 
-4.1

$$$$

     RDKit          3D

 12 12  0  0  0  0  0  0  0  0999 V2000
   -3.4104   -1.2149   -0.6219 C   0  0  0  0  0  0  0  0  0  0  0  0
   -2.4200   -0.3589    0.0102 N   0  0  0  0  0  0  0  0  0  0  0  0
   -2.7884    0.1482    1.3259 C   0  0  0  0  0  0  0  0  0  0  0  0
   -1.0933   -0.5239   -0.4065 C   0  0  0  0  0  0  0  0  0  0  0  0
   -0.7779   -1.3932   -1.2148 O   0  0  0  0  0  0  0  0  0  0  0  0
   -0.2217    0.3891    0.1446 N   0  0  0  0  0  0  0  0  0  0  0  0
    1.1851    0.3924    0.0554 C   0  0  0  0  0  0  0  0  0  0  0  0
    1.9359   -0.6995   -0.3843 C   0  0  0  0  0  0  0  0  0  0  0  0
    3.3319   -0.6278   -0.4285 C   0  0  0  0  0  0  0  0  0  0  0  0
    3.9881    0.5333   -0.0268 C   0  0  0  0  0  0  0  0  0  0  0  0
    3.2491    1.6240    0.4234 C   0  0  0  0  0  0  0  0  0  0  0  0
    1.8542    1.5523    0.4674 C   0  0  0  0  0  0  0  0  0  0  0  0
  1  2  1  0
  2  3  1  0
  2  4  1  0
  4  5  2  0
  4  6  1  0
  6  7  1  0
  7  8  2  0
  8  9  1  0
  9 10  2  0
 10 11  1  0
 11 12  2  0
 12  7  1  0
M  END
>  <target>  (349) 
-1.6

$$$$

     RDKit          3D

  6  5  0  0  0  0  0  0  0  0999 V2000
    2.9852   -0.4049    0.2067 C   0  0  0  0  0  0  0  0  0  0  0  0
    1.6669   -0.1301   -0.4941 C   0  0  0  0  0  0  0  0  0  0  0  0
    0.4976   -0.1164    0.4819 C   0  0  0  0  0  0  0  0  0  0  0  0
   -0.6961    0.1470   -0.2538 O   0  0  0  0  0  0  0  0  0  0  0  0
   -1.8425    0.1764    0.5929 C   0  0  0  0  0  0  0  0  0  0  0  0
   -3.0619    0.4602   -0.2612 C   0  0  0  0  0  0  0  0  0  0  0  0
  1  2  1  0
  2  3  1  0
  3  4  1  0
  4  5  1  0
  5  6  1  0
M  END
>  <target>  (350) 
-0.66

$$$$

     RDKit          3D

  4  3  0  0  0  0  0  0  0  0999 V2000
    1.1228   -0.4806    0.3496 C   0  0  0  0  0  0  0  0  0  0  0  0
   -0.1030    0.4062    0.1924 C   0  0  0  0  0  0  0  0  0  0  0  0
   -1.2980   -0.3782   -0.3251 C   0  0  0  0  0  0  0  0  0  0  0  0
    0.1840    1.4468   -0.7363 O   0  0  0  0  0  0  0  0  0  0  0  0
  1  2  1  0
  2  3  1  0
  2  4  1  0
M  END
>  <target>  (351) 
0.43

$$$$

     RDKit          3D

 11 12  0  0  0  0  0  0  0  0999 V2000
    3.3258   -0.5226    0.1130 C   0  0  0  0  0  0  0  0  0  0  0  0
    1.9006   -0.0593    0.0513 C   0  0  0  0  0  0  0  0  0  0  0  0
    1.5931    1.3013    0.1333 C   0  0  0  0  0  0  0  0  0  0  0  0
    0.2635    1.7289    0.1073 C   0  0  0  0  0  0  0  0  0  0  0  0
   -0.7870    0.8039    0.0098 C   0  0  0  0  0  0  0  0  0  0  0  0
   -2.1287    1.2183   -0.0174 C   0  0  0  0  0  0  0  0  0  0  0  0
   -3.1621    0.2847   -0.1108 C   0  0  0  0  0  0  0  0  0  0  0  0
   -2.8676   -1.0738   -0.1775 C   0  0  0  0  0  0  0  0  0  0  0  0
   -1.5391   -1.5016   -0.1515 C   0  0  0  0  0  0  0  0  0  0  0  0
   -0.4874   -0.5752   -0.0590 C   0  0  0  0  0  0  0  0  0  0  0  0
    0.8556   -0.9896   -0.0318 C   0  0  0  0  0  0  0  0  0  0  0  0
  1  2  1  0
  2  3  2  0
  3  4  1  0
  4  5  2  0
  5  6  1  0
  6  7  2  0
  7  8  1  0
  8  9  2  0
  9 10  1  0
 10 11  2  0
 11  2  1  0
 10  5  1  0
M  END
>  <target>  (352) 
-3.77

$$$$

     RDKit          3D

  4  3  0  0  0  0  0  0  0  0999 V2000
   -0.5427    1.5701   -0.5602 Cl  0  0  0  0  0  0  0  0  0  0  0  0
   -0.0113    0.0345    0.1279 C   0  0  0  0  0  0  0  0  0  0  0  0
    1.8187   -0.3279   -0.3993 Br  0  0  0  0  0  0  0  0  0  0  0  0
   -1.2347   -1.3786   -0.3866 Br  0  0  0  0  0  0  0  0  0  0  0  0
  1  2  1  0
  2  3  1  0
  2  4  1  0
M  END
>  <target>  (353) 
-1.9

$$$$

     RDKit          3D

 20 21  0  0  0  0  0  0  0  0999 V2000
    0.9078   -2.6403   -1.7081 C   0  0  0  0  0  0  0  0  0  0  0  0
    0.2140   -1.9070   -0.5639 C   0  0  0  0  0  0  0  0  0  0  0  0
    0.4204   -0.3679   -0.5994 C   0  0  0  0  0  0  0  0  0  0  0  0
   -0.4204    0.3680    0.5077 C   0  0  0  0  0  0  0  0  0  0  0  0
   -0.2140    1.9071    0.4722 C   0  0  0  0  0  0  0  0  0  0  0  0
   -0.9078    2.6403    1.6164 C   0  0  0  0  0  0  0  0  0  0  0  0
   -1.9079    0.0299    0.4113 C   0  0  0  0  0  0  0  0  0  0  0  0
   -2.6665    0.3612   -0.7231 C   0  0  0  0  0  0  0  0  0  0  0  0
   -4.0232    0.0395   -0.7889 C   0  0  0  0  0  0  0  0  0  0  0  0
   -4.6295   -0.6128    0.2765 C   0  0  0  0  0  0  0  0  0  0  0  0
   -5.9564   -0.9075    0.1694 O   0  0  0  0  0  0  0  0  0  0  0  0
   -3.9012   -0.9502    1.4114 C   0  0  0  0  0  0  0  0  0  0  0  0
   -2.5433   -0.6286    1.4776 C   0  0  0  0  0  0  0  0  0  0  0  0
    1.9079   -0.0299   -0.5030 C   0  0  0  0  0  0  0  0  0  0  0  0
    2.5433    0.6285   -1.5694 C   0  0  0  0  0  0  0  0  0  0  0  0
    3.9012    0.9501   -1.5033 C   0  0  0  0  0  0  0  0  0  0  0  0
    4.6295    0.6127   -0.3684 C   0  0  0  0  0  0  0  0  0  0  0  0
    5.9564    0.9073   -0.2614 O   0  0  0  0  0  0  0  0  0  0  0  0
    4.0232   -0.0395    0.6971 C   0  0  0  0  0  0  0  0  0  0  0  0
    2.6665   -0.3611    0.6314 C   0  0  0  0  0  0  0  0  0  0  0  0
  1  2  1  0
  2  3  1  0
  3  4  1  0
  4  5  1  0
  5  6  1  0
  4  7  1  0
  7  8  2  0
  8  9  1  0
  9 10  2  0
 10 11  1  0
 10 12  1  0
 12 13  2  0
  3 14  1  0
 14 15  2  0
 15 16  1  0
 16 17  2  0
 17 18  1  0
 17 19  1  0
 19 20  2  0
 13  7  1  0
 20 14  1  0
M  END
>  <target>  (354) 
-4.43

$$$$

     RDKit          3D

 19 18  0  0  0  0  0  0  0  0999 V2000
    1.5433    2.3924    4.3688 C   0  0  0  0  0  0  0  0  0  0  0  0
    1.1499    0.9791    4.7559 C   0  0  0  0  0  0  0  0  0  0  0  0
   -0.0129    0.5698    4.0200 O   0  0  0  0  0  0  0  0  0  0  0  0
    0.2189    0.0357    2.7896 C   0  0  0  0  0  0  0  0  0  0  0  0
    1.3190   -0.1275    2.2832 O   0  0  0  0  0  0  0  0  0  0  0  0
   -1.0913   -0.3388    2.1457 C   0  0  0  0  0  0  0  0  0  0  0  0
   -0.8760   -0.7901    0.7024 C   0  0  0  0  0  0  0  0  0  0  0  0
   -2.4661   -1.3987    0.0272 S   0  0  0  0  0  0  0  0  0  0  0  0
   -2.0269   -1.8569   -1.9826 P   0  0  0  0  0  0  0  0  0  0  0  0
   -3.3155   -2.9273   -2.9815 S   0  0  0  0  0  0  0  0  0  0  0  0
   -0.5542   -2.5443   -1.9303 O   0  0  0  0  0  0  0  0  0  0  0  0
    0.1273   -2.8196   -3.1388 C   0  0  0  0  0  0  0  0  0  0  0  0
   -1.6465   -0.4635   -2.7264 O   0  0  0  0  0  0  0  0  0  0  0  0
   -2.6673    0.4870   -2.9675 C   0  0  0  0  0  0  0  0  0  0  0  0
   -0.3846    0.3779   -0.1396 C   0  0  0  0  0  0  0  0  0  0  0  0
   -0.9333    1.4721   -0.1929 O   0  0  0  0  0  0  0  0  0  0  0  0
    0.7354    0.0316   -0.8302 O   0  0  0  0  0  0  0  0  0  0  0  0
    1.2895    1.0827   -1.6291 C   0  0  0  0  0  0  0  0  0  0  0  0
    2.4997    0.5334   -2.3581 C   0  0  0  0  0  0  0  0  0  0  0  0
  1  2  1  0
  2  3  1  0
  3  4  1  0
  4  5  2  0
  4  6  1  0
  6  7  1  0
  7  8  1  0
  8  9  1  0
  9 10  2  0
  9 11  1  0
 11 12  1  0
  9 13  1  0
 13 14  1  0
  7 15  1  0
 15 16  2  0
 15 17  1  0
 17 18  1  0
 18 19  1  0
M  END
>  <target>  (355) 
-3.37

$$$$

     RDKit          3D

  8  8  0  0  0  0  0  0  0  0999 V2000
    3.0474   -0.0237   -1.1453 Cl  0  0  0  0  0  0  0  0  0  0  0  0
    2.1600   -0.2859    0.3690 C   0  0  0  0  0  0  0  0  0  0  0  0
    0.6840   -0.0997    0.1569 C   0  0  0  0  0  0  0  0  0  0  0  0
   -0.1235   -1.1812   -0.2246 C   0  0  0  0  0  0  0  0  0  0  0  0
   -1.4927   -1.0049   -0.4311 C   0  0  0  0  0  0  0  0  0  0  0  0
   -2.0675    0.2536   -0.2651 C   0  0  0  0  0  0  0  0  0  0  0  0
   -1.2738    1.3382    0.1029 C   0  0  0  0  0  0  0  0  0  0  0  0
    0.0957    1.1643    0.3100 C   0  0  0  0  0  0  0  0  0  0  0  0
  1  2  1  0
  2  3  1  0
  3  4  2  0
  4  5  1  0
  5  6  2  0
  6  7  1  0
  7  8  2  0
  8  3  1  0
M  END
>  <target>  (356) 
-2.39

$$$$

     RDKit          3D

  5  4  0  0  0  0  0  0  0  0999 V2000
   -1.7446   -0.1646    0.1525 C   0  0  0  0  0  0  0  0  0  0  0  0
   -0.3489   -0.1097   -0.3792 C   0  0  0  0  0  0  0  0  0  0  0  0
    0.7208    0.1519    0.3847 C   0  0  0  0  0  0  0  0  0  0  0  0
    2.0746    0.1917   -0.2033 C   0  0  0  0  0  0  0  0  0  0  0  0
    3.0601    0.4296    0.4836 O   0  0  0  0  0  0  0  0  0  0  0  0
  1  2  1  0
  2  3  2  0
  3  4  1  0
  4  5  2  0
M  END
>  <target>  (357) 
0.32

$$$$

     RDKit          3D

 15 15  0  0  0  0  0  0  0  0999 V2000
    3.0647    1.6526   -0.1184 C   0  0  0  0  0  0  0  0  0  0  0  0
    2.2655    0.9522   -1.0740 O   0  0  0  0  0  0  0  0  0  0  0  0
    2.2426   -0.4242   -0.7041 N   0  0  0  0  0  0  0  0  0  0  0  0
    3.0919   -1.2043   -1.5823 C   0  0  0  0  0  0  0  0  0  0  0  0
    0.9630   -0.9289   -0.4224 C   0  0  0  0  0  0  0  0  0  0  0  0
    0.7236   -2.1330   -0.4185 O   0  0  0  0  0  0  0  0  0  0  0  0
    0.0574    0.0739   -0.1370 N   0  0  0  0  0  0  0  0  0  0  0  0
   -1.2896   -0.0378    0.2426 C   0  0  0  0  0  0  0  0  0  0  0  0
   -1.9214   -1.2518    0.5138 C   0  0  0  0  0  0  0  0  0  0  0  0
   -3.2682   -1.2825    0.8931 C   0  0  0  0  0  0  0  0  0  0  0  0
   -3.9961   -0.0966    1.0079 C   0  0  0  0  0  0  0  0  0  0  0  0
   -5.8166   -0.2288    1.5283 Br  0  0  0  0  0  0  0  0  0  0  0  0
   -3.3699    1.1238    0.7423 C   0  0  0  0  0  0  0  0  0  0  0  0
   -4.1911    2.6403    0.8619 Cl  0  0  0  0  0  0  0  0  0  0  0  0
   -2.0220    1.1490    0.3627 C   0  0  0  0  0  0  0  0  0  0  0  0
  1  2  1  0
  2  3  1  0
  3  4  1  0
  3  5  1  0
  5  6  2  0
  5  7  1  0
  7  8  1  0
  8  9  2  0
  9 10  1  0
 10 11  2  0
 11 12  1  0
 11 13  1  0
 13 14  1  0
 13 15  2  0
 15  8  1  0
M  END
>  <target>  (358) 
-3.924

$$$$

     RDKit          3D

 16 18  0  0  0  0  0  0  0  0999 V2000
   -1.0683    2.7236   -0.1790 C   0  0  0  0  0  0  0  0  0  0  0  0
   -0.5149    1.3130   -0.0847 C   0  0  0  0  0  0  0  0  0  0  0  0
   -1.4131    0.2102    0.0363 C   0  0  0  0  0  0  0  0  0  0  0  0
   -2.8166    0.3763    0.1783 C   0  0  0  0  0  0  0  0  0  0  0  0
   -3.6955   -0.6995    0.2977 C   0  0  0  0  0  0  0  0  0  0  0  0
   -3.1953   -1.9851    0.2899 C   0  0  0  0  0  0  0  0  0  0  0  0
   -1.8209   -2.1827    0.1627 C   0  0  0  0  0  0  0  0  0  0  0  0
   -0.8993   -1.1103    0.0282 C   0  0  0  0  0  0  0  0  0  0  0  0
    0.5075   -1.3148   -0.1007 C   0  0  0  0  0  0  0  0  0  0  0  0
    1.0525   -2.7273   -0.2121 C   0  0  0  0  0  0  0  0  0  0  0  0
    1.4116   -0.2106   -0.0735 C   0  0  0  0  0  0  0  0  0  0  0  0
    2.8221   -0.3750   -0.0418 C   0  0  0  0  0  0  0  0  0  0  0  0
    3.7069    0.7022   -0.0141 C   0  0  0  0  0  0  0  0  0  0  0  0
    3.2067    1.9878   -0.0063 C   0  0  0  0  0  0  0  0  0  0  0  0
    1.8264    2.1840   -0.0262 C   0  0  0  0  0  0  0  0  0  0  0  0
    0.8978    1.1099   -0.0655 C   0  0  0  0  0  0  0  0  0  0  0  0
  1  2  1  0
  2  3  2  0
  3  4  1  0
  4  5  2  0
  5  6  1  0
  6  7  2  0
  7  8  1  0
  8  9  2  0
  9 10  1  0
  9 11  1  0
 11 12  2  0
 12 13  1  0
 13 14  2  0
 14 15  1  0
 15 16  2  0
 16  2  1  0
  8  3  1  0
 16 11  1  0
M  END
>  <target>  (359) 
-6.57

$$$$

     RDKit          3D

  9  8  0  0  0  0  0  0  0  0999 V2000
    4.0257    0.3627   -0.2170 C   0  0  0  0  0  0  0  0  0  0  0  0
    2.7332    0.0416    0.5163 C   0  0  0  0  0  0  0  0  0  0  0  0
    1.5154    0.2231   -0.3894 C   0  0  0  0  0  0  0  0  0  0  0  0
    0.2178   -0.1008    0.3516 C   0  0  0  0  0  0  0  0  0  0  0  0
   -0.9997    0.0804   -0.5532 C   0  0  0  0  0  0  0  0  0  0  0  0
   -2.2900   -0.2363    0.1661 C   0  0  0  0  0  0  0  0  0  0  0  0
   -2.3860   -0.5967    1.3304 O   0  0  0  0  0  0  0  0  0  0  0  0
   -3.3385   -0.0576   -0.6877 O   0  0  0  0  0  0  0  0  0  0  0  0
   -4.6134   -0.3316   -0.1055 C   0  0  0  0  0  0  0  0  0  0  0  0
  1  2  1  0
  2  3  1  0
  3  4  1  0
  4  5  1  0
  5  6  1  0
  6  7  2  0
  6  8  1  0
  8  9  1  0
M  END
>  <target>  (360) 
-1.87

$$$$

     RDKit          3D

 23 24  0  0  0  0  0  0  0  0999 V2000
    7.3318    0.6042    0.2434 C   0  0  0  0  0  0  0  0  0  0  0  0
    6.1552   -0.1560   -0.1458 N   0  0  0  0  0  0  0  0  0  0  0  0
    6.3506   -1.5975   -0.2365 C   0  0  0  0  0  0  0  0  0  0  0  0
    4.9142    0.4342    0.1178 C   0  0  0  0  0  0  0  0  0  0  0  0
    4.8218    1.5082    0.7057 O   0  0  0  0  0  0  0  0  0  0  0  0
    3.8447   -0.2828   -0.3719 N   0  0  0  0  0  0  0  0  0  0  0  0
    2.4776   -0.0529   -0.1241 C   0  0  0  0  0  0  0  0  0  0  0  0
    2.0016    0.7746    0.8831 C   0  0  0  0  0  0  0  0  0  0  0  0
    0.6217    0.9346    1.0831 C   0  0  0  0  0  0  0  0  0  0  0  0
   -0.3360    0.2720    0.2924 C   0  0  0  0  0  0  0  0  0  0  0  0
    0.1654   -0.5750   -0.7218 C   0  0  0  0  0  0  0  0  0  0  0  0
   -0.8070   -1.5147   -1.8113 Cl  0  0  0  0  0  0  0  0  0  0  0  0
    1.5522   -0.7303   -0.9166 C   0  0  0  0  0  0  0  0  0  0  0  0
   -1.7196    0.4858    0.5541 N   0  0  0  0  0  0  0  0  0  0  0  0
   -2.6806   -0.1007   -0.2152 N   0  0  0  0  0  0  0  0  0  0  0  0
   -3.7878    0.3178    0.3036 C   0  0  0  0  0  0  0  0  0  0  0  0
   -3.6639    1.1409    1.3609 O   0  0  0  0  0  0  0  0  0  0  0  0
   -2.3151    1.2613    1.5385 C   0  0  0  0  0  0  0  0  0  0  0  0
   -1.8290    1.9421    2.4261 O   0  0  0  0  0  0  0  0  0  0  0  0
   -5.1880   -0.0153   -0.1481 C   0  0  0  0  0  0  0  0  0  0  0  0
   -5.9008    1.2806   -0.5548 C   0  0  0  0  0  0  0  0  0  0  0  0
   -5.1482   -0.9689   -1.3518 C   0  0  0  0  0  0  0  0  0  0  0  0
   -5.9364   -0.6930    1.0068 C   0  0  0  0  0  0  0  0  0  0  0  0
  1  2  1  0
  2  3  1  0
  2  4  1  0
  4  5  2  0
  4  6  1  0
  6  7  1  0
  7  8  2  0
  8  9  1  0
  9 10  2  0
 10 11  1  0
 11 12  1  0
 11 13  2  0
 10 14  1  0
 14 15  1  0
 15 16  2  0
 16 17  1  0
 17 18  1  0
 18 19  2  0
 16 20  1  0
 20 21  1  0
 20 22  1  0
 20 23  1  0
 13  7  1  0
 18 14  1  0
M  END
>  <target>  (361) 
-4.328

$$$$

     RDKit          3D

 11 11  0  0  0  0  0  0  0  0999 V2000
    3.4692   -0.2060   -0.0951 C   0  0  0  0  0  0  0  0  0  0  0  0
    2.0537   -0.7082    0.0478 C   0  0  0  0  0  0  0  0  0  0  0  0
    1.8309   -1.8726    0.3583 O   0  0  0  0  0  0  0  0  0  0  0  0
    1.1202    0.2871   -0.1801 N   0  0  0  0  0  0  0  0  0  0  0  0
   -0.2845    0.1747   -0.1289 C   0  0  0  0  0  0  0  0  0  0  0  0
   -0.9636   -1.0129    0.1602 C   0  0  0  0  0  0  0  0  0  0  0  0
   -2.3618   -1.0399    0.1905 C   0  0  0  0  0  0  0  0  0  0  0  0
   -3.0789    0.1200   -0.0687 C   0  0  0  0  0  0  0  0  0  0  0  0
   -4.4174    0.0924   -0.0395 F   0  0  0  0  0  0  0  0  0  0  0  0
   -2.4245    1.3093   -0.3585 C   0  0  0  0  0  0  0  0  0  0  0  0
   -1.0278    1.3364   -0.3887 C   0  0  0  0  0  0  0  0  0  0  0  0
  1  2  1  0
  2  3  2  0
  2  4  1  0
  4  5  1  0
  5  6  2  0
  6  7  1  0
  7  8  2  0
  8  9  1  0
  8 10  1  0
 10 11  2  0
 11  5  1  0
M  END
>  <target>  (362) 
-1.78

$$$$

     RDKit          3D

 18 18  0  0  0  0  0  0  0  0999 V2000
    0.4159    3.3229    0.6838 C   0  0  0  0  0  0  0  0  0  0  0  0
   -0.4250    2.1930    1.2641 C   0  0  0  0  0  0  0  0  0  0  0  0
   -0.9449    1.2634    0.1892 C   0  0  0  0  0  0  0  0  0  0  0  0
   -2.0169    1.7185   -0.5992 C   0  0  0  0  0  0  0  0  0  0  0  0
   -2.5229    0.9459   -1.6405 C   0  0  0  0  0  0  0  0  0  0  0  0
   -1.9591   -0.2941   -1.9221 C   0  0  0  0  0  0  0  0  0  0  0  0
   -0.8882   -0.7875   -1.1591 C   0  0  0  0  0  0  0  0  0  0  0  0
   -0.3175   -2.1407   -1.5270 C   0  0  0  0  0  0  0  0  0  0  0  0
   -1.1469   -3.2909   -0.9753 C   0  0  0  0  0  0  0  0  0  0  0  0
   -0.3932   -0.0089   -0.0860 C   0  0  0  0  0  0  0  0  0  0  0  0
    0.6437   -0.5517    0.7190 N   0  0  0  0  0  0  0  0  0  0  0  0
    2.0114   -0.1334    0.4406 C   0  0  0  0  0  0  0  0  0  0  0  0
    2.2092    0.0680   -0.9554 O   0  0  0  0  0  0  0  0  0  0  0  0
    3.5200    0.5388   -1.2285 C   0  0  0  0  0  0  0  0  0  0  0  0
    0.3993   -1.0466    2.0014 C   0  0  0  0  0  0  0  0  0  0  0  0
    1.3218   -1.2355    2.8033 O   0  0  0  0  0  0  0  0  0  0  0  0
   -1.0329   -1.3895    2.3893 C   0  0  0  0  0  0  0  0  0  0  0  0
   -1.5661   -0.3089    3.6952 Cl  0  0  0  0  0  0  0  0  0  0  0  0
  1  2  1  0
  2  3  1  0
  3  4  2  0
  4  5  1  0
  5  6  2  0
  6  7  1  0
  7  8  1  0
  8  9  1  0
  7 10  2  0
 10 11  1  0
 11 12  1  0
 12 13  1  0
 13 14  1  0
 11 15  1  0
 15 16  2  0
 15 17  1  0
 17 18  1  0
 10  3  1  0
M  END
>  <target>  (363) 
-3.26

$$$$

     RDKit          3D

  6  6  0  0  0  0  0  0  0  0999 V2000
    0.2850   -1.2454   -0.3784 C   0  0  0  0  0  0  0  0  0  0  0  0
   -1.0478   -0.7949    0.2134 C   0  0  0  0  0  0  0  0  0  0  0  0
   -1.3346    0.6733   -0.1121 C   0  0  0  0  0  0  0  0  0  0  0  0
   -0.1308    1.5565    0.0431 C   0  0  0  0  0  0  0  0  0  0  0  0
    1.1165    1.0799    0.1701 C   0  0  0  0  0  0  0  0  0  0  0  0
    1.4424   -0.3850    0.1354 C   0  0  0  0  0  0  0  0  0  0  0  0
  1  2  1  0
  2  3  1  0
  3  4  1  0
  4  5  2  0
  5  6  1  0
  6  1  1  0
M  END
>  <target>  (364) 
-2.59

$$$$

     RDKit          3D

 26 29  0  0  0  0  0  0  0  0999 V2000
    2.3893    1.6936    0.0179 C   0  0  0  0  0  0  0  0  0  0  0  0
    1.8662    0.3953    0.6603 C   0  0  0  0  0  0  0  0  0  0  0  0
    0.7997    0.7741    1.7229 C   0  0  0  0  0  0  0  0  0  0  0  0
   -0.5358    1.2557    1.1447 C   0  0  0  0  0  0  0  0  0  0  0  0
   -1.3927    1.5076    2.2540 O   0  0  0  0  0  0  0  0  0  0  0  0
   -1.1612    0.2377    0.1575 C   0  0  0  0  0  0  0  0  0  0  0  0
   -0.1121   -0.1250   -0.9343 C   0  0  0  0  0  0  0  0  0  0  0  0
   -0.6633   -1.1816   -1.9021 C   0  0  0  0  0  0  0  0  0  0  0  0
   -1.9368   -0.6987   -2.5742 C   0  0  0  0  0  0  0  0  0  0  0  0
   -2.9808   -0.3276   -1.5509 C   0  0  0  0  0  0  0  0  0  0  0  0
   -4.2074   -0.8714   -1.6442 C   0  0  0  0  0  0  0  0  0  0  0  0
   -5.3116   -0.4602   -0.7516 C   0  0  0  0  0  0  0  0  0  0  0  0
   -6.3958   -1.0331   -0.8235 O   0  0  0  0  0  0  0  0  0  0  0  0
   -5.0776    0.7174    0.1503 C   0  0  0  0  0  0  0  0  0  0  0  0
   -3.6429    0.7144    0.6583 C   0  0  0  0  0  0  0  0  0  0  0  0
   -2.5602    0.6791   -0.4650 C   0  0  0  0  0  0  0  0  0  0  0  0
   -2.4824    2.0800   -1.1143 C   0  0  0  0  0  0  0  0  0  0  0  0
    1.2547   -0.5722   -0.3709 C   0  0  0  0  0  0  0  0  0  0  0  0
    1.2619   -1.9347    0.3443 C   0  0  0  0  0  0  0  0  0  0  0  0
    2.3756   -1.8768    1.3960 C   0  0  0  0  0  0  0  0  0  0  0  0
    3.0011   -0.4730    1.2973 C   0  0  0  0  0  0  0  0  0  0  0  0
    3.3096   -0.0063    2.6078 O   0  0  0  0  0  0  0  0  0  0  0  0
    4.3201   -0.6107    0.4897 C   0  0  0  0  0  0  0  0  0  0  0  0
    4.3915   -0.4700   -0.7343 O   0  0  0  0  0  0  0  0  0  0  0  0
    5.5718   -0.9973    1.2769 C   0  0  0  0  0  0  0  0  0  0  0  0
    6.6576   -1.3092    0.4124 O   0  0  0  0  0  0  0  0  0  0  0  0
  1  2  1  0
  2  3  1  0
  3  4  1  0
  4  5  1  0
  4  6  1  0
  6  7  1  0
  7  8  1  0
  8  9  1  0
  9 10  1  0
 10 11  2  0
 11 12  1  0
 12 13  2  0
 12 14  1  0
 14 15  1  0
 15 16  1  0
 16 17  1  0
  7 18  1  0
 18 19  1  0
 19 20  1  0
 20 21  1  0
 21 22  1  0
 21 23  1  0
 23 24  2  0
 23 25  1  0
 25 26  1  0
 21  2  1  0
 18  2  1  0
 16  6  1  0
 16 10  1  0
M  END
>  <target>  (365) 
-3.09

$$$$

     RDKit          3D

  6  6  0  0  0  0  0  0  0  0999 V2000
   -1.1479    0.0518    0.0214 C   0  0  0  0  0  0  0  0  0  0  0  0
   -0.4685   -1.1445    0.0008 C   0  0  0  0  0  0  0  0  0  0  0  0
    0.8742   -1.2370   -0.0244 N   0  0  0  0  0  0  0  0  0  0  0  0
    1.5363   -0.0693   -0.0286 C   0  0  0  0  0  0  0  0  0  0  0  0
    0.9822    1.1533   -0.0102 N   0  0  0  0  0  0  0  0  0  0  0  0
   -0.3633    1.1820    0.0147 C   0  0  0  0  0  0  0  0  0  0  0  0
  1  2  2  0
  2  3  1  0
  3  4  2  0
  4  5  1  0
  5  6  2  0
  6  1  1  0
M  END
>  <target>  (366) 
1.1

$$$$

     RDKit          3D

 10 10  0  0  0  0  0  0  0  0999 V2000
   -3.5749    0.2210    0.0586 Cl  0  0  0  0  0  0  0  0  0  0  0  0
   -1.8585    0.1149    0.0305 C   0  0  0  0  0  0  0  0  0  0  0  0
   -1.0907    1.2367    0.3478 C   0  0  0  0  0  0  0  0  0  0  0  0
    0.3048    1.1557    0.3264 C   0  0  0  0  0  0  0  0  0  0  0  0
    0.9210   -0.0569   -0.0151 C   0  0  0  0  0  0  0  0  0  0  0  0
    0.1493   -1.1838   -0.3338 C   0  0  0  0  0  0  0  0  0  0  0  0
   -1.2455   -1.0922   -0.3095 C   0  0  0  0  0  0  0  0  0  0  0  0
    2.3870   -0.1476   -0.0391 N   0  0  0  0  0  0  0  0  0  0  0  0
    3.0315    0.8707    0.2489 O   0  0  0  0  0  0  0  0  0  0  0  0
    2.8915   -1.2369   -0.3459 O   0  0  0  0  0  0  0  0  0  0  0  0
  1  2  1  0
  2  3  2  0
  3  4  1  0
  4  5  2  0
  5  6  1  0
  6  7  2  0
  5  8  1  0
  8  9  1  0
  8 10  2  0
  7  2  1  0
M  CHG  2   8   1   9  -1
M  END
>  <target>  (367) 
-2.92

$$$$

     RDKit          3D

  6  5  0  0  0  0  0  0  0  0999 V2000
   -2.2113    0.2298    0.7318 C   0  0  0  0  0  0  0  0  0  0  0  0
   -1.0303   -0.6233    0.3034 C   0  0  0  0  0  0  0  0  0  0  0  0
    0.2394    0.1851    0.1838 C   0  0  0  0  0  0  0  0  0  0  0  0
    0.3420    1.3843    0.3983 O   0  0  0  0  0  0  0  0  0  0  0  0
    1.2607   -0.6322   -0.2025 O   0  0  0  0  0  0  0  0  0  0  0  0
    2.5148    0.0355   -0.3464 C   0  0  0  0  0  0  0  0  0  0  0  0
  1  2  1  0
  2  3  1  0
  3  4  2  0
  3  5  1  0
  5  6  1  0
M  END
>  <target>  (368) 
-0.14

$$$$

     RDKit          3D

 10 10  0  0  0  0  0  0  0  0999 V2000
    0.9753    2.5042    1.0722 Cl  0  0  0  0  0  0  0  0  0  0  0  0
    0.1891    1.1223    0.4035 C   0  0  0  0  0  0  0  0  0  0  0  0
   -1.1734    1.2220    0.1084 C   0  0  0  0  0  0  0  0  0  0  0  0
   -1.8672    0.1222   -0.4093 C   0  0  0  0  0  0  0  0  0  0  0  0
   -1.2073   -1.0882   -0.6331 C   0  0  0  0  0  0  0  0  0  0  0  0
    0.1515   -1.2031   -0.3440 C   0  0  0  0  0  0  0  0  0  0  0  0
    0.8338   -0.0909    0.1671 C   0  0  0  0  0  0  0  0  0  0  0  0
    2.2414   -0.2375    0.4478 N   0  0  0  0  0  0  0  0  0  0  0  0
    2.5486   -0.9819    1.3882 O   0  0  0  0  0  0  0  0  0  0  0  0
    3.0319    0.3517   -0.3000 O   0  0  0  0  0  0  0  0  0  0  0  0
  1  2  1  0
  2  3  2  0
  3  4  1  0
  4  5  2  0
  5  6  1  0
  6  7  2  0
  7  8  1  0
  8  9  1  0
  8 10  2  0
  7  2  1  0
M  CHG  2   8   1   9  -1
M  END
>  <target>  (369) 
-2.55

$$$$

     RDKit          3D

 17 17  0  0  0  0  0  0  0  0999 V2000
   -3.7315    2.0900   -0.2395 C   0  0  0  0  0  0  0  0  0  0  0  0
   -3.1787    1.0068    0.6729 C   0  0  0  0  0  0  0  0  0  0  0  0
   -2.2549    0.0541   -0.0848 C   0  0  0  0  0  0  0  0  0  0  0  0
   -1.7030   -1.0349    0.8386 C   0  0  0  0  0  0  0  0  0  0  0  0
   -0.8056   -1.9601    0.1366 N   0  0  0  0  0  0  0  0  0  0  0  0
   -1.4533   -3.0455   -0.5867 C   0  0  0  0  0  0  0  0  0  0  0  0
    0.4870   -1.6213   -0.2854 C   0  0  0  0  0  0  0  0  0  0  0  0
    1.0330   -2.2047   -1.2184 O   0  0  0  0  0  0  0  0  0  0  0  0
    1.0699   -0.6054    0.4411 N   0  0  0  0  0  0  0  0  0  0  0  0
    2.2711    0.0723    0.1467 C   0  0  0  0  0  0  0  0  0  0  0  0
    2.9154    0.0031   -1.0902 C   0  0  0  0  0  0  0  0  0  0  0  0
    4.0974    0.7172   -1.3175 C   0  0  0  0  0  0  0  0  0  0  0  0
    4.6431    1.5154   -0.3114 C   0  0  0  0  0  0  0  0  0  0  0  0
    6.1020    2.3708   -0.6600 Cl  0  0  0  0  0  0  0  0  0  0  0  0
    3.9983    1.5999    0.9253 C   0  0  0  0  0  0  0  0  0  0  0  0
    4.6033    2.5723    2.2206 Cl  0  0  0  0  0  0  0  0  0  0  0  0
    2.8159    0.8835    1.1496 C   0  0  0  0  0  0  0  0  0  0  0  0
  1  2  1  0
  2  3  1  0
  3  4  1  0
  4  5  1  0
  5  6  1  0
  5  7  1  0
  7  8  2  0
  7  9  1  0
  9 10  1  0
 10 11  2  0
 11 12  1  0
 12 13  2  0
 13 14  1  0
 13 15  1  0
 15 16  1  0
 15 17  2  0
 17 10  1  0
M  END
>  <target>  (370) 
-4.77

$$$$

     RDKit          3D

 17 18  0  0  0  0  0  0  0  0999 V2000
    4.6830    2.1570    0.8820 C   0  0  0  0  0  0  0  0  0  0  0  0
    3.7866    1.1967    0.2867 N   0  0  0  0  0  0  0  0  0  0  0  0
    4.2218   -0.1279   -0.0937 C   0  0  0  0  0  0  0  0  0  0  0  0
    2.9376   -0.8003   -0.5740 C   0  0  0  0  0  0  0  0  0  0  0  0
    2.8651   -0.7924   -1.9920 O   0  0  0  0  0  0  0  0  0  0  0  0
    1.8825    0.0226   -0.0483 N   0  0  0  0  0  0  0  0  0  0  0  0
    2.3937    1.2314    0.4472 C   0  0  0  0  0  0  0  0  0  0  0  0
    1.7963    2.1660    0.9577 O   0  0  0  0  0  0  0  0  0  0  0  0
    0.5553   -0.3397   -0.0749 C   0  0  0  0  0  0  0  0  0  0  0  0
    0.1304   -1.4668   -0.6074 N   0  0  0  0  0  0  0  0  0  0  0  0
   -1.2375   -1.6048   -0.5262 N   0  0  0  0  0  0  0  0  0  0  0  0
   -1.8148   -0.5777    0.0683 C   0  0  0  0  0  0  0  0  0  0  0  0
   -0.6885    0.6296    0.5682 S   0  0  0  0  0  0  0  0  0  0  0  0
   -3.3120   -0.4412    0.3038 C   0  0  0  0  0  0  0  0  0  0  0  0
   -3.6191   -0.3480    1.8097 C   0  0  0  0  0  0  0  0  0  0  0  0
   -4.0447   -1.6799   -0.2556 C   0  0  0  0  0  0  0  0  0  0  0  0
   -3.8642    0.8025   -0.4169 C   0  0  0  0  0  0  0  0  0  0  0  0
  1  2  1  0
  2  3  1  0
  3  4  1  0
  4  5  1  0
  4  6  1  0
  6  7  1  0
  7  8  2  0
  6  9  1  0
  9 10  2  0
 10 11  1  0
 11 12  2  0
 12 13  1  0
 12 14  1  0
 14 15  1  0
 14 16  1  0
 14 17  1  0
  7  2  1  0
 13  9  1  0
M  END
>  <target>  (371) 
-1.8769999999999998

$$$$

     RDKit          3D

  9  9  0  0  0  0  0  0  0  0999 V2000
    2.9396    1.0469    0.0835 O   0  0  0  0  0  0  0  0  0  0  0  0
    2.3442   -0.0398    0.0517 N   0  0  0  0  0  0  0  0  0  0  0  0
    2.9031   -1.1462    0.0452 O   0  0  0  0  0  0  0  0  0  0  0  0
    0.8768   -0.0149    0.0193 C   0  0  0  0  0  0  0  0  0  0  0  0
    0.1626   -1.2203   -0.0172 C   0  0  0  0  0  0  0  0  0  0  0  0
   -1.2327   -1.1902   -0.0479 C   0  0  0  0  0  0  0  0  0  0  0  0
   -1.9069    0.0324   -0.0420 C   0  0  0  0  0  0  0  0  0  0  0  0
   -1.1925    1.2314   -0.0056 C   0  0  0  0  0  0  0  0  0  0  0  0
    0.2030    1.2141    0.0253 C   0  0  0  0  0  0  0  0  0  0  0  0
  1  2  1  0
  2  3  2  0
  2  4  1  0
  4  5  2  0
  5  6  1  0
  6  7  2  0
  7  8  1  0
  8  9  2  0
  9  4  1  0
M  CHG  2   1  -1   2   1
M  END
>  <target>  (372) 
-1.8

$$$$

     RDKit          3D

  7  7  0  0  0  0  0  0  0  0999 V2000
    3.3573   -0.4548   -0.1304 I   0  0  0  0  0  0  0  0  0  0  0  0
    1.2988   -0.1759   -0.0505 C   0  0  0  0  0  0  0  0  0  0  0  0
    0.4499   -1.2828   -0.0204 C   0  0  0  0  0  0  0  0  0  0  0  0
   -0.9321   -1.0933    0.0333 C   0  0  0  0  0  0  0  0  0  0  0  0
   -1.4602    0.1978    0.0567 C   0  0  0  0  0  0  0  0  0  0  0  0
   -0.6079    1.3019    0.0266 C   0  0  0  0  0  0  0  0  0  0  0  0
    0.7747    1.1169   -0.0271 C   0  0  0  0  0  0  0  0  0  0  0  0
  1  2  1  0
  2  3  2  0
  3  4  1  0
  4  5  2  0
  5  6  1  0
  6  7  2  0
  7  2  1  0
M  END
>  <target>  (373) 
-3.01

$$$$

     RDKit          3D

 24 26  0  0  0  0  0  0  0  0999 V2000
   -0.9388   -1.4732   -1.9405 C   0  0  0  0  0  0  0  0  0  0  0  0
   -1.0603   -1.3707   -0.4139 C   0  0  0  0  0  0  0  0  0  0  0  0
    0.0111   -2.1170    0.2397 N   0  0  0  0  0  0  0  0  0  0  0  0
    1.2647   -1.4967    0.2154 C   0  0  0  0  0  0  0  0  0  0  0  0
    2.4282   -2.2554    0.3821 C   0  0  0  0  0  0  0  0  0  0  0  0
    3.6910   -1.6461    0.4112 C   0  0  0  0  0  0  0  0  0  0  0  0
    5.0555   -2.6902    0.5830 Cl  0  0  0  0  0  0  0  0  0  0  0  0
    3.7904   -0.2574    0.3043 C   0  0  0  0  0  0  0  0  0  0  0  0
    2.6327    0.5181    0.1862 C   0  0  0  0  0  0  0  0  0  0  0  0
    1.3792   -0.1054    0.1560 C   0  0  0  0  0  0  0  0  0  0  0  0
    0.1436    0.7126    0.1050 C   0  0  0  0  0  0  0  0  0  0  0  0
    0.2618    1.9346    0.1652 O   0  0  0  0  0  0  0  0  0  0  0  0
   -1.0627    0.0096    0.0600 N   0  0  0  0  0  0  0  0  0  0  0  0
   -2.3082    0.7082   -0.0223 C   0  0  0  0  0  0  0  0  0  0  0  0
   -2.4329    1.8025   -0.8939 C   0  0  0  0  0  0  0  0  0  0  0  0
   -3.6516    2.4617   -1.0508 C   0  0  0  0  0  0  0  0  0  0  0  0
   -4.7658    2.0376   -0.3370 C   0  0  0  0  0  0  0  0  0  0  0  0
   -4.6526    0.9708    0.5532 C   0  0  0  0  0  0  0  0  0  0  0  0
   -3.4257    0.3088    0.7405 C   0  0  0  0  0  0  0  0  0  0  0  0
   -3.3698   -0.7690    1.7900 C   0  0  0  0  0  0  0  0  0  0  0  0
    5.3720    0.5143    0.3329 S   0  0  0  0  0  0  0  0  0  0  0  0
    5.0605    2.1609    0.1932 N   0  0  0  0  0  0  0  0  0  0  0  0
    6.0704    0.1706   -0.8830 O   0  0  0  0  0  0  0  0  0  0  0  0
    5.9402    0.3592    1.6505 O   0  0  0  0  0  0  0  0  0  0  0  0
  1  2  1  0
  2  3  1  0
  3  4  1  0
  4  5  2  0
  5  6  1  0
  6  7  1  0
  6  8  2  0
  8  9  1  0
  9 10  2  0
 10 11  1  0
 11 12  2  0
 11 13  1  0
 13 14  1  0
 14 15  2  0
 15 16  1  0
 16 17  2  0
 17 18  1  0
 18 19  2  0
 19 20  1  0
  8 21  1  0
 21 22  1  0
 21 23  2  0
 21 24  2  0
 10  4  1  0
 13  2  1  0
 19 14  1  0
M  END
>  <target>  (374) 
-3.78

$$$$

     RDKit          3D

 17 17  0  0  0  0  0  0  0  0999 V2000
   -2.5100    2.4202    0.0186 C   0  0  0  0  0  0  0  0  0  0  0  0
   -1.6912    1.2896    0.2929 O   0  0  0  0  0  0  0  0  0  0  0  0
   -2.3211    0.0771    0.4064 C   0  0  0  0  0  0  0  0  0  0  0  0
   -3.6950   -0.1379    0.2737 C   0  0  0  0  0  0  0  0  0  0  0  0
   -4.2265   -1.4253    0.4192 C   0  0  0  0  0  0  0  0  0  0  0  0
   -3.3917   -2.5063    0.7024 C   0  0  0  0  0  0  0  0  0  0  0  0
   -2.0197   -2.3056    0.8352 C   0  0  0  0  0  0  0  0  0  0  0  0
   -1.4929   -1.0238    0.6719 C   0  0  0  0  0  0  0  0  0  0  0  0
   -0.1438   -0.8425    0.8390 O   0  0  0  0  0  0  0  0  0  0  0  0
    0.5625   -1.0637   -0.3940 C   0  0  0  0  0  0  0  0  0  0  0  0
    1.6240    0.0311   -0.5656 C   0  0  0  0  0  0  0  0  0  0  0  0
    0.9775    1.2917   -0.8148 O   0  0  0  0  0  0  0  0  0  0  0  0
    2.5230    0.1602    0.6729 C   0  0  0  0  0  0  0  0  0  0  0  0
    3.6497    1.0206    0.4096 O   0  0  0  0  0  0  0  0  0  0  0  0
    4.6630    0.4452   -0.2720 C   0  0  0  0  0  0  0  0  0  0  0  0
    5.6511    1.3447   -0.4741 N   0  0  0  0  0  0  0  0  0  0  0  0
    4.7048   -0.7072   -0.6717 O   0  0  0  0  0  0  0  0  0  0  0  0
  1  2  1  0
  2  3  1  0
  3  4  2  0
  4  5  1  0
  5  6  2  0
  6  7  1  0
  7  8  2  0
  8  9  1  0
  9 10  1  0
 10 11  1  0
 11 12  1  0
 11 13  1  0
 13 14  1  0
 14 15  1  0
 15 16  1  0
 15 17  2  0
  8  3  1  0
M  END
>  <target>  (375) 
-0.985

$$$$

     RDKit          3D

 21 21  0  0  0  0  0  0  0  0999 V2000
    4.3719    2.7761    1.7594 C   0  0  0  0  0  0  0  0  0  0  0  0
    3.7141    1.4859    1.2959 C   0  0  0  0  0  0  0  0  0  0  0  0
    2.8347    0.8815    2.3932 C   0  0  0  0  0  0  0  0  0  0  0  0
    2.1903   -0.4314    1.9580 C   0  0  0  0  0  0  0  0  0  0  0  0
    1.3276   -0.1828    0.8538 O   0  0  0  0  0  0  0  0  0  0  0  0
    0.6659   -1.3677    0.4243 C   0  0  0  0  0  0  0  0  0  0  0  0
   -0.0743   -1.0710   -0.7912 N   0  0  0  0  0  0  0  0  0  0  0  0
    0.5300   -1.2935   -2.0233 C   0  0  0  0  0  0  0  0  0  0  0  0
    1.6727   -1.7565   -2.1173 O   0  0  0  0  0  0  0  0  0  0  0  0
   -0.2661   -1.0001   -3.2850 C   0  0  0  0  0  0  0  0  0  0  0  0
   -0.9987   -2.5109   -3.8676 Cl  0  0  0  0  0  0  0  0  0  0  0  0
   -1.3534   -0.4807   -0.6366 C   0  0  0  0  0  0  0  0  0  0  0  0
   -1.4994    0.9273   -0.6826 C   0  0  0  0  0  0  0  0  0  0  0  0
   -0.3363    1.8789   -0.8881 C   0  0  0  0  0  0  0  0  0  0  0  0
   -0.5057    2.7922   -2.0978 C   0  0  0  0  0  0  0  0  0  0  0  0
   -2.7789    1.4758   -0.4869 C   0  0  0  0  0  0  0  0  0  0  0  0
   -3.8888    0.6599   -0.2878 C   0  0  0  0  0  0  0  0  0  0  0  0
   -3.7400   -0.7227   -0.2662 C   0  0  0  0  0  0  0  0  0  0  0  0
   -2.4769   -1.3155   -0.4288 C   0  0  0  0  0  0  0  0  0  0  0  0
   -2.3948   -2.8280   -0.3949 C   0  0  0  0  0  0  0  0  0  0  0  0
   -2.6549   -3.3995    0.9931 C   0  0  0  0  0  0  0  0  0  0  0  0
  1  2  1  0
  2  3  1  0
  3  4  1  0
  4  5  1  0
  5  6  1  0
  6  7  1  0
  7  8  1  0
  8  9  2  0
  8 10  1  0
 10 11  1  0
  7 12  1  0
 12 13  2  0
 13 14  1  0
 14 15  1  0
 13 16  1  0
 16 17  2  0
 17 18  1  0
 18 19  2  0
 19 20  1  0
 20 21  1  0
 19 12  1  0
M  END
>  <target>  (376) 
-4.19

$$$$

     RDKit          3D

  9  9  0  0  0  0  0  0  0  0999 V2000
    2.4858   -0.2377   -0.1996 O   0  0  0  0  0  0  0  0  0  0  0  0
    1.1220   -0.1519   -0.1070 C   0  0  0  0  0  0  0  0  0  0  0  0
    0.3930   -1.2720   -0.4975 C   0  0  0  0  0  0  0  0  0  0  0  0
   -0.9987   -1.2487   -0.4272 C   0  0  0  0  0  0  0  0  0  0  0  0
   -1.6543   -0.1049    0.0335 C   0  0  0  0  0  0  0  0  0  0  0  0
   -0.9195    1.0204    0.4258 C   0  0  0  0  0  0  0  0  0  0  0  0
   -1.8007    2.3982    0.9848 Cl  0  0  0  0  0  0  0  0  0  0  0  0
    0.4780    1.0014    0.3569 C   0  0  0  0  0  0  0  0  0  0  0  0
    1.4449    2.3587    0.8265 Cl  0  0  0  0  0  0  0  0  0  0  0  0
  1  2  1  0
  2  3  2  0
  3  4  1  0
  4  5  2  0
  5  6  1  0
  6  7  1  0
  6  8  2  0
  8  9  1  0
  8  2  1  0
M  END
>  <target>  (377) 
-1.3

$$$$

     RDKit          3D

  7  6  0  0  0  0  0  0  0  0999 V2000
   -2.8757    0.0510    0.1456 C   0  0  0  0  0  0  0  0  0  0  0  0
   -1.4822   -0.4400    0.5023 C   0  0  0  0  0  0  0  0  0  0  0  0
   -0.4061    0.3214   -0.2674 C   0  0  0  0  0  0  0  0  0  0  0  0
    0.9835   -0.1593    0.0802 C   0  0  0  0  0  0  0  0  0  0  0  0
    1.2509   -1.0476    0.8763 O   0  0  0  0  0  0  0  0  0  0  0  0
    1.9000    0.5542   -0.6348 O   0  0  0  0  0  0  0  0  0  0  0  0
    3.2540    0.1779   -0.3805 C   0  0  0  0  0  0  0  0  0  0  0  0
  1  2  1  0
  2  3  1  0
  3  4  1  0
  4  5  2  0
  4  6  1  0
  6  7  1  0
M  END
>  <target>  (378) 
-1.92

$$$$

     RDKit          3D

 13 13  0  0  0  0  0  0  0  0999 V2000
    4.0222    0.2265    0.2286 C   0  0  0  0  0  0  0  0  0  0  0  0
    2.7738   -0.6074    0.0007 C   0  0  0  0  0  0  0  0  0  0  0  0
    1.4962    0.2122    0.1014 C   0  0  0  0  0  0  0  0  0  0  0  0
    1.5059    1.4132    0.3415 O   0  0  0  0  0  0  0  0  0  0  0  0
    0.3740   -0.5752   -0.1110 N   0  0  0  0  0  0  0  0  0  0  0  0
   -0.9764   -0.1680   -0.0962 C   0  0  0  0  0  0  0  0  0  0  0  0
   -1.3950    1.1417    0.1445 C   0  0  0  0  0  0  0  0  0  0  0  0
   -2.7570    1.4659    0.1422 C   0  0  0  0  0  0  0  0  0  0  0  0
   -3.7164    0.4827   -0.1012 C   0  0  0  0  0  0  0  0  0  0  0  0
   -5.3777    0.9525   -0.0893 Cl  0  0  0  0  0  0  0  0  0  0  0  0
   -3.3073   -0.8307   -0.3432 C   0  0  0  0  0  0  0  0  0  0  0  0
   -4.4298   -2.1084   -0.6534 Cl  0  0  0  0  0  0  0  0  0  0  0  0
   -1.9436   -1.1516   -0.3401 C   0  0  0  0  0  0  0  0  0  0  0  0
  1  2  1  0
  2  3  1  0
  3  4  2  0
  3  5  1  0
  5  6  1  0
  6  7  2  0
  7  8  1  0
  8  9  2  0
  9 10  1  0
  9 11  1  0
 11 12  1  0
 11 13  2  0
 13  6  1  0
M  END
>  <target>  (379) 
-3.0

$$$$

     RDKit          3D

 19 21  0  0  0  0  0  0  0  0999 V2000
    5.5873   -0.1109   -0.4140 N   0  0  0  0  0  0  0  0  0  0  0  0
    4.2258    0.0962   -0.3536 C   0  0  0  0  0  0  0  0  0  0  0  0
    3.7867    1.3399   -0.5157 N   0  0  0  0  0  0  0  0  0  0  0  0
    2.4586    1.5174   -0.4534 C   0  0  0  0  0  0  0  0  0  0  0  0
    2.0238    2.8486   -0.5714 N   0  0  0  0  0  0  0  0  0  0  0  0
    1.5460    0.4954   -0.2132 C   0  0  0  0  0  0  0  0  0  0  0  0
    0.1954    0.6856   -0.1659 N   0  0  0  0  0  0  0  0  0  0  0  0
   -0.5708   -0.4096    0.0649 C   0  0  0  0  0  0  0  0  0  0  0  0
   -2.0252   -0.1574    0.0961 C   0  0  0  0  0  0  0  0  0  0  0  0
   -2.9469   -1.0084   -0.5400 C   0  0  0  0  0  0  0  0  0  0  0  0
   -4.3214   -0.7522   -0.4990 C   0  0  0  0  0  0  0  0  0  0  0  0
   -4.8020    0.3676    0.1734 C   0  0  0  0  0  0  0  0  0  0  0  0
   -3.9113    1.2343    0.7993 C   0  0  0  0  0  0  0  0  0  0  0  0
   -2.5380    0.9753    0.7564 C   0  0  0  0  0  0  0  0  0  0  0  0
    0.0330   -1.6600    0.2731 C   0  0  0  0  0  0  0  0  0  0  0  0
   -0.6789   -2.8310    0.5415 N   0  0  0  0  0  0  0  0  0  0  0  0
    1.3716   -1.8233    0.2083 N   0  0  0  0  0  0  0  0  0  0  0  0
    2.1399   -0.7573   -0.0395 C   0  0  0  0  0  0  0  0  0  0  0  0
    3.4537   -0.9541   -0.1016 N   0  0  0  0  0  0  0  0  0  0  0  0
  1  2  1  0
  2  3  2  0
  3  4  1  0
  4  5  1  0
  4  6  2  0
  6  7  1  0
  7  8  2  0
  8  9  1  0
  9 10  2  0
 10 11  1  0
 11 12  2  0
 12 13  1  0
 13 14  2  0
  8 15  1  0
 15 16  1  0
 15 17  2  0
 17 18  1  0
 18 19  2  0
 14  9  1  0
 18  6  1  0
 19  2  1  0
M  END
>  <target>  (380) 
-2.404

$$$$

     RDKit          3D

 10  9  0  0  0  0  0  0  0  0999 V2000
   -4.6379    0.4138   -0.3200 C   0  0  0  0  0  0  0  0  0  0  0  0
   -3.3643   -0.1483    0.2911 C   0  0  0  0  0  0  0  0  0  0  0  0
   -2.1303    0.2567   -0.5148 C   0  0  0  0  0  0  0  0  0  0  0  0
   -0.8517   -0.3104    0.1030 C   0  0  0  0  0  0  0  0  0  0  0  0
    0.3819    0.0941   -0.7021 C   0  0  0  0  0  0  0  0  0  0  0  0
    1.6540   -0.4591   -0.1028 C   0  0  0  0  0  0  0  0  0  0  0  0
    1.7229   -1.1506    0.9027 O   0  0  0  0  0  0  0  0  0  0  0  0
    2.7164   -0.0622   -0.8603 O   0  0  0  0  0  0  0  0  0  0  0  0
    4.0037   -0.5160   -0.4168 C   0  0  0  0  0  0  0  0  0  0  0  0
    4.5721    0.4448    0.6106 C   0  0  0  0  0  0  0  0  0  0  0  0
  1  2  1  0
  2  3  1  0
  3  4  1  0
  4  5  1  0
  5  6  1  0
  6  7  2  0
  6  8  1  0
  8  9  1  0
  9 10  1  0
M  END
>  <target>  (381) 
-2.35

$$$$

     RDKit          3D

 17 18  0  0  0  0  0  0  0  0999 V2000
   -2.5384   -2.2119    1.2365 O   0  0  0  0  0  0  0  0  0  0  0  0
   -2.9802   -1.2551    0.2756 C   0  0  0  0  0  0  0  0  0  0  0  0
   -2.2532    0.0804    0.4417 C   0  0  0  0  0  0  0  0  0  0  0  0
   -2.8659    1.0433   -0.4298 O   0  0  0  0  0  0  0  0  0  0  0  0
   -0.7559    0.0091    0.1120 C   0  0  0  0  0  0  0  0  0  0  0  0
   -0.1983    1.3374    0.3219 O   0  0  0  0  0  0  0  0  0  0  0  0
    1.0757    1.1812    0.9593 C   0  0  0  0  0  0  0  0  0  0  0  0
    2.0910    1.8546    0.2299 O   0  0  0  0  0  0  0  0  0  0  0  0
    2.7568    0.8467   -0.5538 C   0  0  0  0  0  0  0  0  0  0  0  0
    2.1042   -0.4265   -0.3501 O   0  0  0  0  0  0  0  0  0  0  0  0
    1.4441   -0.2804    0.9119 C   0  0  0  0  0  0  0  0  0  0  0  0
    0.0999   -0.9651    0.9289 C   0  0  0  0  0  0  0  0  0  0  0  0
   -0.3377   -1.0841    2.2818 O   0  0  0  0  0  0  0  0  0  0  0  0
    2.8924    1.2294   -2.0607 C   0  0  0  0  0  0  0  0  0  0  0  0
    1.2925    1.3885   -2.8573 Cl  0  0  0  0  0  0  0  0  0  0  0  0
    3.7770    2.7852   -2.2413 Cl  0  0  0  0  0  0  0  0  0  0  0  0
    3.8298   -0.0337   -2.9400 Cl  0  0  0  0  0  0  0  0  0  0  0  0
  1  2  1  0
  2  3  1  0
  3  4  1  0
  3  5  1  0
  5  6  1  0
  6  7  1  0
  7  8  1  0
  8  9  1  0
  9 10  1  0
 10 11  1  0
 11 12  1  0
 12 13  1  0
  9 14  1  0
 14 15  1  0
 14 16  1  0
 14 17  1  0
 11  7  1  0
 12  5  1  0
M  END
>  <target>  (382) 
-1.84

$$$$

     RDKit          3D

 22 23  0  0  0  0  0  0  0  0999 V2000
    0.1337    2.9218   -0.5815 C   0  0  0  0  0  0  0  0  0  0  0  0
    0.0616    1.4706   -0.3966 N   0  0  0  0  0  0  0  0  0  0  0  0
   -1.1782    0.9358   -0.0908 C   0  0  0  0  0  0  0  0  0  0  0  0
   -2.2991    1.5710    0.0311 N   0  0  0  0  0  0  0  0  0  0  0  0
   -3.4175    0.7824    0.3486 C   0  0  0  0  0  0  0  0  0  0  0  0
   -3.7040    0.5097    1.6904 C   0  0  0  0  0  0  0  0  0  0  0  0
   -4.8100   -0.2663    2.0417 C   0  0  0  0  0  0  0  0  0  0  0  0
   -5.6494   -0.7843    1.0516 C   0  0  0  0  0  0  0  0  0  0  0  0
   -6.8589   -1.5895    1.4249 C   0  0  0  0  0  0  0  0  0  0  0  0
   -5.3836   -0.4856   -0.2915 C   0  0  0  0  0  0  0  0  0  0  0  0
   -4.2760    0.2996   -0.6533 C   0  0  0  0  0  0  0  0  0  0  0  0
   -4.0153    0.6063   -2.1008 C   0  0  0  0  0  0  0  0  0  0  0  0
    1.2563    0.7718   -0.4297 C   0  0  0  0  0  0  0  0  0  0  0  0
    2.4412    1.2508   -0.6330 N   0  0  0  0  0  0  0  0  0  0  0  0
    3.4900    0.3163   -0.6109 C   0  0  0  0  0  0  0  0  0  0  0  0
    3.8208   -0.3691   -1.7846 C   0  0  0  0  0  0  0  0  0  0  0  0
    4.8590   -1.3021   -1.7988 C   0  0  0  0  0  0  0  0  0  0  0  0
    5.5840   -1.5659   -0.6335 C   0  0  0  0  0  0  0  0  0  0  0  0
    6.7221   -2.5431   -0.6511 C   0  0  0  0  0  0  0  0  0  0  0  0
    5.2768   -0.8566    0.5353 C   0  0  0  0  0  0  0  0  0  0  0  0
    4.2378    0.0889    0.5565 C   0  0  0  0  0  0  0  0  0  0  0  0
    3.9308    0.8372    1.8227 C   0  0  0  0  0  0  0  0  0  0  0  0
  1  2  1  0
  2  3  1  0
  3  4  2  3
  4  5  1  0
  5  6  2  0
  6  7  1  0
  7  8  2  0
  8  9  1  0
  8 10  1  0
 10 11  2  0
 11 12  1  0
  2 13  1  0
 13 14  2  3
 14 15  1  0
 15 16  2  0
 16 17  1  0
 17 18  2  0
 18 19  1  0
 18 20  1  0
 20 21  2  0
 21 22  1  0
 11  5  1  0
 21 15  1  0
M  END
>  <target>  (383) 
-5.47

$$$$

     RDKit          3D

 16 16  0  0  0  0  0  0  0  0999 V2000
    1.0179    4.3831   -1.2630 C   0  0  0  0  0  0  0  0  0  0  0  0
   -0.1761    3.6400   -1.4670 O   0  0  0  0  0  0  0  0  0  0  0  0
   -0.1231    2.3653   -0.9404 C   0  0  0  0  0  0  0  0  0  0  0  0
   -1.2414    1.6703   -1.0888 N   0  0  0  0  0  0  0  0  0  0  0  0
   -1.2008    0.4491   -0.5866 C   0  0  0  0  0  0  0  0  0  0  0  0
   -2.3592   -0.2971   -0.7422 N   0  0  0  0  0  0  0  0  0  0  0  0
   -2.6831   -1.2581    0.3038 C   0  0  0  0  0  0  0  0  0  0  0  0
   -3.7672   -2.1938   -0.2329 C   0  0  0  0  0  0  0  0  0  0  0  0
   -3.1813   -0.5473    1.5622 C   0  0  0  0  0  0  0  0  0  0  0  0
   -0.1453   -0.0698    0.0269 N   0  0  0  0  0  0  0  0  0  0  0  0
    0.9239    0.7085    0.1210 C   0  0  0  0  0  0  0  0  0  0  0  0
    2.0714    0.2513    0.7506 N   0  0  0  0  0  0  0  0  0  0  0  0
    2.3496   -1.1779    0.6870 C   0  0  0  0  0  0  0  0  0  0  0  0
    2.8363   -1.5764   -0.7063 C   0  0  0  0  0  0  0  0  0  0  0  0
    3.4235   -1.4972    1.7280 C   0  0  0  0  0  0  0  0  0  0  0  0
    0.9894    1.9419   -0.3514 N   0  0  0  0  0  0  0  0  0  0  0  0
  1  2  1  0
  2  3  1  0
  3  4  2  0
  4  5  1  0
  5  6  1  0
  6  7  1  0
  7  8  1  0
  7  9  1  0
  5 10  2  0
 10 11  1  0
 11 12  1  0
 12 13  1  0
 13 14  1  0
 13 15  1  0
 11 16  2  0
 16  3  1  0
M  END
>  <target>  (384) 
-2.478

$$$$

     RDKit          3D

  8  7  0  0  0  0  0  0  0  0999 V2000
   -4.0385    0.4482   -0.2442 C   0  0  0  0  0  0  0  0  0  0  0  0
   -2.8065   -0.4411   -0.2979 C   0  0  0  0  0  0  0  0  0  0  0  0
   -1.5193    0.3814   -0.2445 C   0  0  0  0  0  0  0  0  0  0  0  0
   -0.2825   -0.5168   -0.2988 C   0  0  0  0  0  0  0  0  0  0  0  0
    1.0062    0.3063   -0.2452 C   0  0  0  0  0  0  0  0  0  0  0  0
    2.2423   -0.5937   -0.3002 C   0  0  0  0  0  0  0  0  0  0  0  0
    3.5075    0.2144   -0.2607 C   0  0  0  0  0  0  0  0  0  0  0  0
    4.4254    0.1248    0.7099 C   0  0  0  0  0  0  0  0  0  0  0  0
  1  2  1  0
  2  3  1  0
  3  4  1  0
  4  5  1  0
  5  6  1  0
  6  7  1  0
  7  8  2  0
M  END
>  <target>  (385) 
-4.44

$$$$

     RDKit          3D

  8  8  0  0  0  0  0  0  0  0999 V2000
    2.7036   -0.0469    0.0385 C   0  0  0  0  0  0  0  0  0  0  0  0
    1.2043   -0.0308    0.0308 C   0  0  0  0  0  0  0  0  0  0  0  0
    0.4872   -0.9746   -0.7109 C   0  0  0  0  0  0  0  0  0  0  0  0
   -0.9105   -0.9360   -0.7444 C   0  0  0  0  0  0  0  0  0  0  0  0
   -1.6167    0.0220   -0.0146 C   0  0  0  0  0  0  0  0  0  0  0  0
   -3.0068    0.1267   -0.1457 N   0  0  0  0  0  0  0  0  0  0  0  0
   -0.8967    1.0074    0.6634 C   0  0  0  0  0  0  0  0  0  0  0  0
    0.5010    0.9747    0.7011 C   0  0  0  0  0  0  0  0  0  0  0  0
  1  2  1  0
  2  3  2  0
  3  4  1  0
  4  5  2  0
  5  6  1  0
  5  7  1  0
  7  8  2  0
  8  2  1  0
M  END
>  <target>  (386) 
-1.21

$$$$

     RDKit          3D

  6  6  0  0  0  0  0  0  0  0999 V2000
    2.0599    0.1260    0.1280 N   0  0  0  0  0  0  0  0  0  0  0  0
    0.7206    0.0238    0.0975 C   0  0  0  0  0  0  0  0  0  0  0  0
   -0.0697    1.0460   -0.1180 N   0  0  0  0  0  0  0  0  0  0  0  0
   -1.3873    0.6331   -0.0943 C   0  0  0  0  0  0  0  0  0  0  0  0
   -1.5844   -0.7118    0.1277 C   0  0  0  0  0  0  0  0  0  0  0  0
   -0.0681   -1.4873    0.3151 S   0  0  0  0  0  0  0  0  0  0  0  0
  1  2  1  0
  2  3  2  0
  3  4  1  0
  4  5  2  0
  5  6  1  0
  6  2  1  0
M  END
>  <target>  (387) 
-0.36

$$$$

     RDKit          3D

 11 11  0  0  0  0  0  0  0  0999 V2000
   -1.5312   -0.4794   -1.4255 C   0  0  0  0  0  0  0  0  0  0  0  0
   -2.8499   -0.0264   -1.4316 C   0  0  0  0  0  0  0  0  0  0  0  0
   -3.4251    0.4653   -0.2575 C   0  0  0  0  0  0  0  0  0  0  0  0
   -2.6854    0.5011    0.9270 C   0  0  0  0  0  0  0  0  0  0  0  0
   -1.3665    0.0487    0.9400 C   0  0  0  0  0  0  0  0  0  0  0  0
   -0.7968   -0.4214   -0.2427 C   0  0  0  0  0  0  0  0  0  0  0  0
    0.5047   -0.9343   -0.2517 O   0  0  0  0  0  0  0  0  0  0  0  0
    1.5043    0.0105   -0.0824 C   0  0  0  0  0  0  0  0  0  0  0  0
    1.3509    1.2175    0.0426 O   0  0  0  0  0  0  0  0  0  0  0  0
    2.7189   -0.6196   -0.0903 N   0  0  0  0  0  0  0  0  0  0  0  0
    3.9556    0.1121   -0.0727 C   0  0  0  0  0  0  0  0  0  0  0  0
  1  2  2  0
  2  3  1  0
  3  4  2  0
  4  5  1  0
  5  6  2  0
  6  7  1  0
  7  8  1  0
  8  9  2  0
  8 10  1  0
 10 11  1  0
  6  1  1  0
M  END
>  <target>  (388) 
-1.8030000000000002

$$$$

     RDKit          3D

  7  6  0  0  0  0  0  0  0  0999 V2000
   -3.2138   -0.1024   -0.1712 C   0  0  0  0  0  0  0  0  0  0  0  0
   -1.8959    0.5770    0.1670 C   0  0  0  0  0  0  0  0  0  0  0  0
   -0.7091   -0.3667   -0.0470 C   0  0  0  0  0  0  0  0  0  0  0  0
    0.6263    0.2894    0.3265 C   0  0  0  0  0  0  0  0  0  0  0  0
    0.8484    1.4288   -0.5014 O   0  0  0  0  0  0  0  0  0  0  0  0
    1.7901   -0.6956    0.1681 C   0  0  0  0  0  0  0  0  0  0  0  0
    3.1212   -0.0905    0.5940 C   0  0  0  0  0  0  0  0  0  0  0  0
  1  2  1  0
  2  3  1  0
  3  4  1  0
  4  5  1  0
  4  6  1  0
  6  7  1  0
M  END
>  <target>  (389) 
-0.8

$$$$

     RDKit          3D

 15 17  0  0  0  0  0  0  0  0999 V2000
    3.5401   -1.2415   -0.5324 C   0  0  0  0  0  0  0  0  0  0  0  0
    3.7552   -0.0018    0.0572 C   0  0  0  0  0  0  0  0  0  0  0  0
    2.6660    0.7936    0.4165 C   0  0  0  0  0  0  0  0  0  0  0  0
    1.3389    0.3677    0.1924 C   0  0  0  0  0  0  0  0  0  0  0  0
    0.2097    1.1401    0.5487 C   0  0  0  0  0  0  0  0  0  0  0  0
    0.4455    2.3441    1.1781 O   0  0  0  0  0  0  0  0  0  0  0  0
   -1.1175    0.7100    0.2941 C   0  0  0  0  0  0  0  0  0  0  0  0
   -2.2725    1.4783    0.5785 C   0  0  0  0  0  0  0  0  0  0  0  0
   -3.5556    0.9936    0.3144 C   0  0  0  0  0  0  0  0  0  0  0  0
   -3.7172   -0.2658   -0.2467 C   0  0  0  0  0  0  0  0  0  0  0  0
   -2.5961   -1.0349   -0.5543 C   0  0  0  0  0  0  0  0  0  0  0  0
   -1.2984   -0.5602   -0.2978 C   0  0  0  0  0  0  0  0  0  0  0  0
   -0.1795   -1.3397   -0.6343 C   0  0  0  0  0  0  0  0  0  0  0  0
    1.1313   -0.8921   -0.4061 C   0  0  0  0  0  0  0  0  0  0  0  0
    2.2371   -1.6838   -0.7622 C   0  0  0  0  0  0  0  0  0  0  0  0
  1  2  2  0
  2  3  1  0
  3  4  2  0
  4  5  1  0
  5  6  1  0
  5  7  2  0
  7  8  1  0
  8  9  2  0
  9 10  1  0
 10 11  2  0
 11 12  1  0
 12 13  2  0
 13 14  1  0
 14 15  2  0
 12  7  1  0
 14  4  1  0
 15  1  1  0
M  END
>  <target>  (390) 
-4.73

$$$$

     RDKit          3D

 15 17  0  0  0  0  0  0  0  0999 V2000
    4.5016    0.5411    0.3297 C   0  0  0  0  0  0  0  0  0  0  0  0
    3.0937    0.0240    0.3332 C   0  0  0  0  0  0  0  0  0  0  0  0
    2.8085   -1.2535    0.8207 C   0  0  0  0  0  0  0  0  0  0  0  0
    1.4924   -1.7203    0.8518 C   0  0  0  0  0  0  0  0  0  0  0  0
    0.4326   -0.9153    0.4061 C   0  0  0  0  0  0  0  0  0  0  0  0
   -0.8957   -1.3722    0.4318 C   0  0  0  0  0  0  0  0  0  0  0  0
   -1.9562   -0.5643   -0.0107 C   0  0  0  0  0  0  0  0  0  0  0  0
   -3.2848   -1.0201    0.0144 C   0  0  0  0  0  0  0  0  0  0  0  0
   -4.3280   -0.2054   -0.4284 C   0  0  0  0  0  0  0  0  0  0  0  0
   -4.0568    1.0746   -0.9016 C   0  0  0  0  0  0  0  0  0  0  0  0
   -2.7420    1.5418   -0.9328 C   0  0  0  0  0  0  0  0  0  0  0  0
   -1.6811    0.7340   -0.4907 C   0  0  0  0  0  0  0  0  0  0  0  0
   -0.3526    1.1901   -0.5160 C   0  0  0  0  0  0  0  0  0  0  0  0
    0.7083    0.3817   -0.0745 C   0  0  0  0  0  0  0  0  0  0  0  0
    2.0381    0.8378   -0.0998 C   0  0  0  0  0  0  0  0  0  0  0  0
  1  2  1  0
  2  3  2  0
  3  4  1  0
  4  5  2  0
  5  6  1  0
  6  7  2  0
  7  8  1  0
  8  9  2  0
  9 10  1  0
 10 11  2  0
 11 12  1  0
 12 13  2  0
 13 14  1  0
 14 15  2  0
 15  2  1  0
 14  5  1  0
 12  7  1  0
M  END
>  <target>  (391) 
-6.96

$$$$

     RDKit          3D

  9  9  0  0  0  0  0  0  0  0999 V2000
    2.5647    0.2593    0.2691 C   0  0  0  0  0  0  0  0  0  0  0  0
    1.1038    0.5762    0.0892 C   0  0  0  0  0  0  0  0  0  0  0  0
    0.7201    1.9217   -0.0210 C   0  0  0  0  0  0  0  0  0  0  0  0
   -0.6168    2.2697   -0.1833 C   0  0  0  0  0  0  0  0  0  0  0  0
   -1.5899    1.2771   -0.2308 C   0  0  0  0  0  0  0  0  0  0  0  0
   -1.2397   -0.0778   -0.1236 C   0  0  0  0  0  0  0  0  0  0  0  0
   -2.3362   -1.1084   -0.1761 C   0  0  0  0  0  0  0  0  0  0  0  0
    0.1223   -0.4405    0.0067 C   0  0  0  0  0  0  0  0  0  0  0  0
    0.5169   -1.8926    0.1243 C   0  0  0  0  0  0  0  0  0  0  0  0
  1  2  1  0
  2  3  2  0
  3  4  1  0
  4  5  2  0
  5  6  1  0
  6  7  1  0
  6  8  2  0
  8  9  1  0
  8  2  1  0
M  END
>  <target>  (392) 
-3.2

$$$$

     RDKit          3D

 15 15  0  0  0  0  0  0  0  0999 V2000
    5.5881   -0.8256   -1.1434 C   0  0  0  0  0  0  0  0  0  0  0  0
    4.5983   -0.2487   -0.2761 N   0  0  0  0  0  0  0  0  0  0  0  0
    3.2612   -0.3126   -0.5598 C   0  0  0  0  0  0  0  0  0  0  0  0
    2.7939   -0.7563   -1.5993 O   0  0  0  0  0  0  0  0  0  0  0  0
    2.5468    0.1879    0.5176 O   0  0  0  0  0  0  0  0  0  0  0  0
    1.1547    0.2029    0.3677 C   0  0  0  0  0  0  0  0  0  0  0  0
    0.5439    1.0145   -0.5814 C   0  0  0  0  0  0  0  0  0  0  0  0
   -0.8492    1.0380   -0.6613 C   0  0  0  0  0  0  0  0  0  0  0  0
   -1.6414    0.2732    0.2149 C   0  0  0  0  0  0  0  0  0  0  0  0
   -3.0537    0.2631    0.1343 N   0  0  0  0  0  0  0  0  0  0  0  0
   -3.5068   -0.6046   -0.9570 C   0  0  0  0  0  0  0  0  0  0  0  0
   -3.6570    1.5965    0.1295 C   0  0  0  0  0  0  0  0  0  0  0  0
   -1.0023   -0.5288    1.1878 C   0  0  0  0  0  0  0  0  0  0  0  0
   -1.8062   -1.3590    2.1513 C   0  0  0  0  0  0  0  0  0  0  0  0
    0.3995   -0.5534    1.2599 C   0  0  0  0  0  0  0  0  0  0  0  0
  1  2  1  0
  2  3  1  0
  3  4  2  0
  3  5  1  0
  5  6  1  0
  6  7  2  0
  7  8  1  0
  8  9  2  0
  9 10  1  0
 10 11  1  0
 10 12  1  0
  9 13  1  0
 13 14  1  0
 13 15  2  0
 15  6  1  0
M  END
>  <target>  (393) 
-2.36

$$$$

     RDKit          3D

 10  9  0  0  0  0  0  0  0  0999 V2000
    5.0578   -0.0038    0.5231 C   0  0  0  0  0  0  0  0  0  0  0  0
    3.6969    0.6713    0.5837 C   0  0  0  0  0  0  0  0  0  0  0  0
    2.5794   -0.2823    0.1619 C   0  0  0  0  0  0  0  0  0  0  0  0
    1.2122    0.4006    0.2243 C   0  0  0  0  0  0  0  0  0  0  0  0
    0.0937   -0.5538   -0.1977 C   0  0  0  0  0  0  0  0  0  0  0  0
   -1.2747    0.1298   -0.1355 C   0  0  0  0  0  0  0  0  0  0  0  0
   -2.3928   -0.8318   -0.5542 C   0  0  0  0  0  0  0  0  0  0  0  0
   -3.7897   -0.1990   -0.5863 C   0  0  0  0  0  0  0  0  0  0  0  0
   -4.2608    0.2991    0.7722 C   0  0  0  0  0  0  0  0  0  0  0  0
   -3.8157    0.8962   -1.4970 O   0  0  0  0  0  0  0  0  0  0  0  0
  1  2  1  0
  2  3  1  0
  3  4  1  0
  4  5  1  0
  5  6  1  0
  6  7  1  0
  7  8  1  0
  8  9  1  0
  8 10  1  0
M  END
>  <target>  (394) 
-2.74

$$$$

     RDKit          3D

 20 21  0  0  0  0  0  0  0  0999 V2000
    2.8679   -1.6824   -2.1880 C   0  0  0  0  0  0  0  0  0  0  0  0
    1.8989   -0.8535   -1.4778 N   0  0  0  0  0  0  0  0  0  0  0  0
    0.5760   -1.3135   -1.4433 C   0  0  0  0  0  0  0  0  0  0  0  0
    0.1542   -2.1871   -2.1970 O   0  0  0  0  0  0  0  0  0  0  0  0
   -0.1943   -0.7723   -0.4428 N   0  0  0  0  0  0  0  0  0  0  0  0
   -1.5713   -1.1763   -0.1110 C   0  0  0  0  0  0  0  0  0  0  0  0
   -1.5823   -2.6591    0.3219 C   0  0  0  0  0  0  0  0  0  0  0  0
   -2.5143   -1.0245   -1.3255 C   0  0  0  0  0  0  0  0  0  0  0  0
   -2.0612   -0.2199    1.0030 C   0  0  0  0  0  0  0  0  0  0  0  0
   -2.4896   -0.6650    2.2655 C   0  0  0  0  0  0  0  0  0  0  0  0
   -2.9166    0.2377    3.2458 C   0  0  0  0  0  0  0  0  0  0  0  0
   -2.9226    1.6046    2.9876 C   0  0  0  0  0  0  0  0  0  0  0  0
   -2.5003    2.0728    1.7488 C   0  0  0  0  0  0  0  0  0  0  0  0
   -2.0723    1.1720    0.7705 C   0  0  0  0  0  0  0  0  0  0  0  0
    2.3578    0.4077   -0.9715 C   0  0  0  0  0  0  0  0  0  0  0  0
    3.6860    0.5738   -0.5512 C   0  0  0  0  0  0  0  0  0  0  0  0
    4.1386    1.8042   -0.0622 C   0  0  0  0  0  0  0  0  0  0  0  0
    3.2743    2.8932   -0.0010 C   0  0  0  0  0  0  0  0  0  0  0  0
    1.9617    2.7559   -0.4398 C   0  0  0  0  0  0  0  0  0  0  0  0
    1.5123    1.5259   -0.9282 C   0  0  0  0  0  0  0  0  0  0  0  0
  1  2  1  0
  2  3  1  0
  3  4  2  0
  3  5  1  0
  5  6  1  0
  6  7  1  0
  6  8  1  0
  6  9  1  0
  9 10  2  0
 10 11  1  0
 11 12  2  0
 12 13  1  0
 13 14  2  0
  2 15  1  0
 15 16  2  0
 16 17  1  0
 17 18  2  0
 18 19  1  0
 19 20  2  0
 14  9  1  0
 20 15  1  0
M  END
>  <target>  (395) 
-3.35

$$$$

     RDKit          3D

  7  6  0  0  0  0  0  0  0  0999 V2000
    3.1065    0.1006    0.6097 C   0  0  0  0  0  0  0  0  0  0  0  0
    1.8040   -0.6164    0.2941 C   0  0  0  0  0  0  0  0  0  0  0  0
    0.6342    0.3597    0.2100 C   0  0  0  0  0  0  0  0  0  0  0  0
   -0.6831   -0.3320   -0.1050 C   0  0  0  0  0  0  0  0  0  0  0  0
   -0.7637   -1.5483   -0.2687 O   0  0  0  0  0  0  0  0  0  0  0  0
   -1.8941    0.5812   -0.2040 C   0  0  0  0  0  0  0  0  0  0  0  0
   -3.1731   -0.1729   -0.5201 C   0  0  0  0  0  0  0  0  0  0  0  0
  1  2  1  0
  2  3  1  0
  3  4  1  0
  4  5  2  0
  4  6  1  0
  6  7  1  0
M  END
>  <target>  (396) 
-0.83

$$$$

     RDKit          3D

 11 11  0  0  0  0  0  0  0  0999 V2000
   -2.7745    0.2374    0.1540 O   0  0  0  0  0  0  0  0  0  0  0  0
   -1.4102    0.1420    0.0873 C   0  0  0  0  0  0  0  0  0  0  0  0
   -0.7937   -1.0080   -0.4154 C   0  0  0  0  0  0  0  0  0  0  0  0
   -1.8279   -2.4764   -1.0228 Br  0  0  0  0  0  0  0  0  0  0  0  0
    0.5985   -1.0952   -0.4790 C   0  0  0  0  0  0  0  0  0  0  0  0
    1.3826   -0.0243   -0.0366 C   0  0  0  0  0  0  0  0  0  0  0  0
    2.8124   -0.1086   -0.0997 C   0  0  0  0  0  0  0  0  0  0  0  0
    3.9690   -0.1807   -0.1524 N   0  0  0  0  0  0  0  0  0  0  0  0
    0.7707    1.1286    0.4673 C   0  0  0  0  0  0  0  0  0  0  0  0
   -0.6235    1.2095    0.5283 C   0  0  0  0  0  0  0  0  0  0  0  0
   -1.4011    2.7952    1.2201 Br  0  0  0  0  0  0  0  0  0  0  0  0
  1  2  1  0
  2  3  2  0
  3  4  1  0
  3  5  1  0
  5  6  2  0
  6  7  1  0
  7  8  3  0
  6  9  1  0
  9 10  2  0
 10 11  1  0
 10  2  1  0
M  END
>  <target>  (397) 
-3.33

$$$$

     RDKit          3D

 14 15  0  0  0  0  0  0  0  0999 V2000
   -5.2368    0.0497    0.3277 Cl  0  0  0  0  0  0  0  0  0  0  0  0
   -3.5153   -0.0009    0.1958 C   0  0  0  0  0  0  0  0  0  0  0  0
   -2.7839    1.0028    0.8330 C   0  0  0  0  0  0  0  0  0  0  0  0
   -1.3874    1.0098    0.7590 C   0  0  0  0  0  0  0  0  0  0  0  0
   -0.6945    0.0160    0.0490 C   0  0  0  0  0  0  0  0  0  0  0  0
   -1.4459   -0.9872   -0.5867 C   0  0  0  0  0  0  0  0  0  0  0  0
   -2.8445   -0.9988   -0.5164 C   0  0  0  0  0  0  0  0  0  0  0  0
   -3.6788   -2.2733   -1.3332 Cl  0  0  0  0  0  0  0  0  0  0  0  0
    0.7755    0.0242   -0.0270 C   0  0  0  0  0  0  0  0  0  0  0  0
    1.5259   -1.1059    0.3390 C   0  0  0  0  0  0  0  0  0  0  0  0
    2.9216   -1.0987    0.2672 C   0  0  0  0  0  0  0  0  0  0  0  0
    3.5912    0.0398   -0.1734 C   0  0  0  0  0  0  0  0  0  0  0  0
    2.8670    1.1705   -0.5416 C   0  0  0  0  0  0  0  0  0  0  0  0
    1.4713    1.1623   -0.4683 C   0  0  0  0  0  0  0  0  0  0  0  0
  1  2  1  0
  2  3  2  0
  3  4  1  0
  4  5  2  0
  5  6  1  0
  6  7  2  0
  7  8  1  0
  5  9  1  0
  9 10  2  0
 10 11  1  0
 11 12  2  0
 12 13  1  0
 13 14  2  0
  7  2  1  0
 14  9  1  0
M  END
>  <target>  (398) 
-6.39

$$$$

     RDKit          3D

 21 23  0  0  0  0  0  0  0  0999 V2000
   -3.7038   -2.6706    0.0621 C   0  0  0  0  0  0  0  0  0  0  0  0
   -2.6095   -1.7544   -0.2490 N   0  0  0  0  0  0  0  0  0  0  0  0
   -1.3077   -2.2635   -0.1331 C   0  0  0  0  0  0  0  0  0  0  0  0
   -1.1029   -3.4765   -0.0056 O   0  0  0  0  0  0  0  0  0  0  0  0
   -0.1372   -1.2740   -0.0782 C   0  0  0  0  0  0  0  0  0  0  0  0
    0.9557   -1.8524    0.6330 O   0  0  0  0  0  0  0  0  0  0  0  0
    2.0478   -1.0907    0.6862 C   0  0  0  0  0  0  0  0  0  0  0  0
    2.1250    0.0956    0.1294 N   0  0  0  0  0  0  0  0  0  0  0  0
    3.3781    0.6368    0.3617 C   0  0  0  0  0  0  0  0  0  0  0  0
    3.8290    1.8975   -0.0800 C   0  0  0  0  0  0  0  0  0  0  0  0
    5.1265    2.3202    0.2283 C   0  0  0  0  0  0  0  0  0  0  0  0
    5.9768    1.5045    0.9683 C   0  0  0  0  0  0  0  0  0  0  0  0
    5.5542    0.2495    1.4181 C   0  0  0  0  0  0  0  0  0  0  0  0
    4.2490   -0.1649    1.1032 C   0  0  0  0  0  0  0  0  0  0  0  0
    3.4451   -1.6328    1.5075 S   0  0  0  0  0  0  0  0  0  0  0  0
   -2.9556   -0.4106   -0.5851 C   0  0  0  0  0  0  0  0  0  0  0  0
   -2.2696    0.2943   -1.5820 C   0  0  0  0  0  0  0  0  0  0  0  0
   -2.6338    1.6029   -1.9171 C   0  0  0  0  0  0  0  0  0  0  0  0
   -3.7018    2.2196   -1.2721 C   0  0  0  0  0  0  0  0  0  0  0  0
   -4.4105    1.5249   -0.2971 C   0  0  0  0  0  0  0  0  0  0  0  0
   -4.0458    0.2170    0.0368 C   0  0  0  0  0  0  0  0  0  0  0  0
  1  2  1  0
  2  3  1  0
  3  4  2  0
  3  5  1  0
  5  6  1  0
  6  7  1  0
  7  8  2  0
  8  9  1  0
  9 10  2  0
 10 11  1  0
 11 12  2  0
 12 13  1  0
 13 14  2  0
 14 15  1  0
  2 16  1  0
 16 17  2  0
 17 18  1  0
 18 19  2  0
 19 20  1  0
 20 21  2  0
 15  7  1  0
 14  9  1  0
 21 16  1  0
M  END
>  <target>  (399) 
-4.873

$$$$

     RDKit          3D

 11 12  0  0  0  0  0  0  0  0999 V2000
   -1.6531    2.1001    0.0071 O   0  0  0  0  0  0  0  0  0  0  0  0
   -1.2851    0.7794    0.0130 C   0  0  0  0  0  0  0  0  0  0  0  0
   -2.2667   -0.2083    0.0369 C   0  0  0  0  0  0  0  0  0  0  0  0
   -1.8829   -1.5443    0.0427 C   0  0  0  0  0  0  0  0  0  0  0  0
   -0.5256   -1.8790    0.0246 C   0  0  0  0  0  0  0  0  0  0  0  0
    0.4698   -0.9105    0.0007 C   0  0  0  0  0  0  0  0  0  0  0  0
    1.7576   -1.3006   -0.0157 N   0  0  0  0  0  0  0  0  0  0  0  0
    2.7106   -0.3429   -0.0389 C   0  0  0  0  0  0  0  0  0  0  0  0
    2.4428    1.0116   -0.0466 C   0  0  0  0  0  0  0  0  0  0  0  0
    1.1120    1.4091   -0.0296 C   0  0  0  0  0  0  0  0  0  0  0  0
    0.0859    0.4472   -0.0053 C   0  0  0  0  0  0  0  0  0  0  0  0
  1  2  1  0
  2  3  2  0
  3  4  1  0
  4  5  2  0
  5  6  1  0
  6  7  2  0
  7  8  1  0
  8  9  2  0
  9 10  1  0
 10 11  2  0
 11  2  1  0
 11  6  1  0
M  END
>  <target>  (400) 
-2.54

$$$$

     RDKit          3D

 16 17  0  0  0  0  0  0  0  0999 V2000
   -2.3054    2.1829   -1.1606 C   0  0  0  0  0  0  0  0  0  0  0  0
   -2.5371    0.9019   -0.4006 C   0  0  0  0  0  0  0  0  0  0  0  0
   -1.5431    0.1516    0.1352 C   0  0  0  0  0  0  0  0  0  0  0  0
   -1.8187   -1.4019    0.8975 S   0  0  0  0  0  0  0  0  0  0  0  0
   -3.5457   -1.6771    0.4359 C   0  0  0  0  0  0  0  0  0  0  0  0
   -4.2990   -0.3746    0.5987 C   0  0  0  0  0  0  0  0  0  0  0  0
   -3.8873    0.5842   -0.3749 O   0  0  0  0  0  0  0  0  0  0  0  0
   -0.0982    0.6324    0.1142 C   0  0  0  0  0  0  0  0  0  0  0  0
    0.1709    1.8286    0.0918 O   0  0  0  0  0  0  0  0  0  0  0  0
    0.8201   -0.4009    0.1337 N   0  0  0  0  0  0  0  0  0  0  0  0
    2.2255   -0.3214    0.1082 C   0  0  0  0  0  0  0  0  0  0  0  0
    2.9337   -1.5285    0.1801 C   0  0  0  0  0  0  0  0  0  0  0  0
    4.3310   -1.5393    0.1586 C   0  0  0  0  0  0  0  0  0  0  0  0
    5.0340   -0.3417    0.0638 C   0  0  0  0  0  0  0  0  0  0  0  0
    4.3389    0.8629   -0.0097 C   0  0  0  0  0  0  0  0  0  0  0  0
    2.9401    0.8735    0.0119 C   0  0  0  0  0  0  0  0  0  0  0  0
  1  2  1  0
  2  3  2  0
  3  4  1  0
  4  5  1  0
  5  6  1  0
  6  7  1  0
  3  8  1  0
  8  9  2  0
  8 10  1  0
 10 11  1  0
 11 12  2  0
 12 13  1  0
 13 14  2  0
 14 15  1  0
 15 16  2  0
  7  2  1  0
 16 11  1  0
M  END
>  <target>  (401) 
-3.14

$$$$

     RDKit          3D

 16 17  0  0  0  0  0  0  0  0999 V2000
   -5.1428    0.0663   -0.6035 C   0  0  0  0  0  0  0  0  0  0  0  0
   -3.6982   -0.3481   -0.3890 C   0  0  0  0  0  0  0  0  0  0  0  0
   -2.8806    0.8114   -0.5420 O   0  0  0  0  0  0  0  0  0  0  0  0
   -1.5295    0.6518   -0.3890 C   0  0  0  0  0  0  0  0  0  0  0  0
   -0.7917    1.8232   -0.5565 C   0  0  0  0  0  0  0  0  0  0  0  0
    0.6023    1.8265   -0.4321 C   0  0  0  0  0  0  0  0  0  0  0  0
    1.2752    0.6276   -0.1323 C   0  0  0  0  0  0  0  0  0  0  0  0
    2.6447    0.4828    0.0196 N   0  0  0  0  0  0  0  0  0  0  0  0
    2.9046   -0.7809    0.2959 C   0  0  0  0  0  0  0  0  0  0  0  0
    1.5853   -1.8502    0.3903 S   0  0  0  0  0  0  0  0  0  0  0  0
    0.5217   -0.5389    0.0330 C   0  0  0  0  0  0  0  0  0  0  0  0
   -0.8811   -0.5505   -0.0906 C   0  0  0  0  0  0  0  0  0  0  0  0
    4.5328   -1.4380    0.5690 S   0  0  0  0  0  0  0  0  0  0  0  0
    5.6022   -0.1287    0.4658 N   0  0  0  0  0  0  0  0  0  0  0  0
    4.8062   -2.3145   -0.5462 O   0  0  0  0  0  0  0  0  0  0  0  0
    4.5635   -1.8737    1.9471 O   0  0  0  0  0  0  0  0  0  0  0  0
  1  2  1  0
  2  3  1  0
  3  4  1  0
  4  5  2  0
  5  6  1  0
  6  7  2  0
  7  8  1  0
  8  9  2  0
  9 10  1  0
 10 11  1  0
 11 12  2  0
  9 13  1  0
 13 14  1  0
 13 15  2  0
 13 16  2  0
 11  7  1  0
 12  4  1  0
M  END
>  <target>  (402) 
-3.81

$$$$

     RDKit          3D

 12 12  0  0  0  0  0  0  0  0999 V2000
   -2.5224   -0.3996    0.0122 O   0  0  0  0  0  0  0  0  0  0  0  0
   -1.1698   -0.1536    0.0074 C   0  0  0  0  0  0  0  0  0  0  0  0
   -0.7178    1.1708    0.0744 C   0  0  0  0  0  0  0  0  0  0  0  0
   -1.8869    2.4521    0.1611 Cl  0  0  0  0  0  0  0  0  0  0  0  0
    0.6613    1.4369    0.0704 C   0  0  0  0  0  0  0  0  0  0  0  0
    1.2289    3.0808    0.1535 Cl  0  0  0  0  0  0  0  0  0  0  0  0
    1.5804    0.3698   -0.0011 C   0  0  0  0  0  0  0  0  0  0  0  0
    3.2928    0.6944   -0.0064 Cl  0  0  0  0  0  0  0  0  0  0  0  0
    1.1188   -0.9598   -0.0682 C   0  0  0  0  0  0  0  0  0  0  0  0
    2.2432   -2.2845   -0.1567 Cl  0  0  0  0  0  0  0  0  0  0  0  0
   -0.2601   -1.2157   -0.0636 C   0  0  0  0  0  0  0  0  0  0  0  0
   -0.8989   -2.8284   -0.1441 Cl  0  0  0  0  0  0  0  0  0  0  0  0
  1  2  1  0
  2  3  2  0
  3  4  1  0
  3  5  1  0
  5  6  1  0
  5  7  2  0
  7  8  1  0
  7  9  1  0
  9 10  1  0
  9 11  2  0
 11 12  1  0
 11  2  1  0
M  END
>  <target>  (403) 
-4.28

$$$$

     RDKit          3D

  3  2  0  0  0  0  0  0  0  0999 V2000
   -1.3150    1.0777   -0.0002 Cl  0  0  0  0  0  0  0  0  0  0  0  0
   -0.0663   -0.1647    0.0099 C   0  0  0  0  0  0  0  0  0  0  0  0
    1.6885    0.6448   -0.0915 Br  0  0  0  0  0  0  0  0  0  0  0  0
  1  2  1  0
  2  3  1  0
M  END
>  <target>  (404) 
-0.89

$$$$

     RDKit          3D

 14 14  0  0  0  0  0  0  0  0999 V2000
   -1.6611    2.4477   -0.1830 C   0  0  0  0  0  0  0  0  0  0  0  0
   -0.4355    1.6225   -0.5603 C   0  0  0  0  0  0  0  0  0  0  0  0
   -0.4710    0.1247   -0.1253 C   0  0  0  0  0  0  0  0  0  0  0  0
   -1.7257   -0.5840   -0.6972 C   0  0  0  0  0  0  0  0  0  0  0  0
   -1.7936   -2.0858   -0.4193 C   0  0  0  0  0  0  0  0  0  0  0  0
   -0.4613    0.0733    1.3895 C   0  0  0  0  0  0  0  0  0  0  0  0
   -1.4591   -0.0999    2.0838 O   0  0  0  0  0  0  0  0  0  0  0  0
    0.7495    0.3013    1.9721 N   0  0  0  0  0  0  0  0  0  0  0  0
    1.9360   -0.0904    1.4309 C   0  0  0  0  0  0  0  0  0  0  0  0
    2.9053   -0.2471    2.1712 O   0  0  0  0  0  0  0  0  0  0  0  0
    1.9496   -0.3611    0.0771 N   0  0  0  0  0  0  0  0  0  0  0  0
    3.1978   -0.8354   -0.4944 C   0  0  0  0  0  0  0  0  0  0  0  0
    0.8036   -0.4875   -0.6988 C   0  0  0  0  0  0  0  0  0  0  0  0
    0.8250   -0.9963   -1.8214 O   0  0  0  0  0  0  0  0  0  0  0  0
  1  2  1  0
  2  3  1  0
  3  4  1  0
  4  5  1  0
  3  6  1  0
  6  7  2  0
  6  8  1  0
  8  9  1  0
  9 10  2  0
  9 11  1  0
 11 12  1  0
 11 13  1  0
 13 14  2  0
 13  3  1  0
M  END
>  <target>  (405) 
-2.23

$$$$

     RDKit          3D

 27 30  0  0  0  0  0  0  0  0999 V2000
    7.5690    0.9106   -0.0544 C   0  0  0  0  0  0  0  0  0  0  0  0
    6.2952    0.1440    0.1235 C   0  0  0  0  0  0  0  0  0  0  0  0
    6.0016   -0.8707   -0.4939 O   0  0  0  0  0  0  0  0  0  0  0  0
    5.5260    0.7273    1.0844 O   0  0  0  0  0  0  0  0  0  0  0  0
    4.2425    0.1220    1.2338 C   0  0  0  0  0  0  0  0  0  0  0  0
    3.2883    0.4718    0.0866 C   0  0  0  0  0  0  0  0  0  0  0  0
    3.5368    1.4033   -0.6815 O   0  0  0  0  0  0  0  0  0  0  0  0
    1.9575   -0.2844    0.0420 C   0  0  0  0  0  0  0  0  0  0  0  0
    2.1219   -1.8058    0.1623 C   0  0  0  0  0  0  0  0  0  0  0  0
    0.9533   -2.4354   -0.6000 C   0  0  0  0  0  0  0  0  0  0  0  0
    0.0660   -1.2686   -1.0740 C   0  0  0  0  0  0  0  0  0  0  0  0
   -1.0955   -0.9921   -0.0741 C   0  0  0  0  0  0  0  0  0  0  0  0
   -2.1643   -2.0977   -0.1829 C   0  0  0  0  0  0  0  0  0  0  0  0
   -3.2998   -1.8831    0.8072 C   0  0  0  0  0  0  0  0  0  0  0  0
   -3.9343   -0.5256    0.6403 C   0  0  0  0  0  0  0  0  0  0  0  0
   -5.2703   -0.4258    0.5207 C   0  0  0  0  0  0  0  0  0  0  0  0
   -5.9532    0.8868    0.4730 C   0  0  0  0  0  0  0  0  0  0  0  0
   -7.1721    0.9296    0.3268 O   0  0  0  0  0  0  0  0  0  0  0  0
   -5.1241    2.1225    0.6970 C   0  0  0  0  0  0  0  0  0  0  0  0
   -3.7304    1.9403    0.1134 C   0  0  0  0  0  0  0  0  0  0  0  0
   -2.9846    0.6772    0.6417 C   0  0  0  0  0  0  0  0  0  0  0  0
   -2.5362    0.9341    2.0985 C   0  0  0  0  0  0  0  0  0  0  0  0
   -1.7591    0.3902   -0.3132 C   0  0  0  0  0  0  0  0  0  0  0  0
   -0.6888    1.4940   -0.2716 C   0  0  0  0  0  0  0  0  0  0  0  0
    0.3873    1.2630   -1.3244 C   0  0  0  0  0  0  0  0  0  0  0  0
    1.0839   -0.1039   -1.2310 C   0  0  0  0  0  0  0  0  0  0  0  0
    1.8991   -0.3083   -2.5352 C   0  0  0  0  0  0  0  0  0  0  0  0
  1  2  1  0
  2  3  2  0
  2  4  1  0
  4  5  1  0
  5  6  1  0
  6  7  2  0
  6  8  1  0
  8  9  1  0
  9 10  1  0
 10 11  1  0
 11 12  1  0
 12 13  1  0
 13 14  1  0
 14 15  1  0
 15 16  2  0
 16 17  1  0
 17 18  2  0
 17 19  1  0
 19 20  1  0
 20 21  1  0
 21 22  1  0
 21 23  1  0
 23 24  1  0
 24 25  1  0
 25 26  1  0
 26 27  1  0
 21 15  1  0
 23 12  1  0
 26  8  1  0
 26 11  1  0
M  END
>  <target>  (406) 
-4.63

$$$$

     RDKit          3D

 11 11  0  0  0  0  0  0  0  0999 V2000
    3.8505   -0.4189   -0.3668 N   0  0  0  0  0  0  0  0  0  0  0  0
    2.9743    0.5183    0.0745 C   0  0  0  0  0  0  0  0  0  0  0  0
    3.3454    1.5985    0.5052 O   0  0  0  0  0  0  0  0  0  0  0  0
    1.6827    0.1022   -0.0321 N   0  0  0  0  0  0  0  0  0  0  0  0
    0.6262    0.9272    0.5051 C   0  0  0  0  0  0  0  0  0  0  0  0
   -0.7216    0.3312    0.2003 C   0  0  0  0  0  0  0  0  0  0  0  0
   -1.2905    0.4815   -1.0726 C   0  0  0  0  0  0  0  0  0  0  0  0
   -2.5299   -0.0889   -1.3664 C   0  0  0  0  0  0  0  0  0  0  0  0
   -3.2092   -0.8201   -0.3937 C   0  0  0  0  0  0  0  0  0  0  0  0
   -2.6493   -0.9839    0.8722 C   0  0  0  0  0  0  0  0  0  0  0  0
   -1.4097   -0.4142    1.1680 C   0  0  0  0  0  0  0  0  0  0  0  0
  1  2  1  0
  2  3  2  0
  2  4  1  0
  4  5  1  0
  5  6  1  0
  6  7  2  0
  7  8  1  0
  8  9  2  0
  9 10  1  0
 10 11  2  0
 11  6  1  0
M  END
>  <target>  (407) 
-0.95

$$$$

     RDKit          3D

 14 14  0  0  0  0  0  0  0  0999 V2000
   -4.2351   -0.7541    0.6398 C   0  0  0  0  0  0  0  0  0  0  0  0
   -3.1305   -0.0646   -0.0068 N   0  0  0  0  0  0  0  0  0  0  0  0
   -3.4268    1.2869   -0.4655 C   0  0  0  0  0  0  0  0  0  0  0  0
   -1.8420   -0.5089    0.3095 C   0  0  0  0  0  0  0  0  0  0  0  0
   -1.6519   -1.3884    1.1454 O   0  0  0  0  0  0  0  0  0  0  0  0
   -0.8481    0.1023   -0.4229 N   0  0  0  0  0  0  0  0  0  0  0  0
    0.5450   -0.0074   -0.2332 C   0  0  0  0  0  0  0  0  0  0  0  0
    1.1294   -0.5423    0.9144 C   0  0  0  0  0  0  0  0  0  0  0  0
    2.5220   -0.6045    1.0418 C   0  0  0  0  0  0  0  0  0  0  0  0
    3.3600   -0.1257    0.0261 C   0  0  0  0  0  0  0  0  0  0  0  0
    4.8504   -0.2078    0.1934 C   0  0  0  0  0  0  0  0  0  0  0  0
    2.7675    0.4217   -1.1196 C   0  0  0  0  0  0  0  0  0  0  0  0
    3.7224    1.0450   -2.4190 Cl  0  0  0  0  0  0  0  0  0  0  0  0
    1.3748    0.4831   -1.2464 C   0  0  0  0  0  0  0  0  0  0  0  0
  1  2  1  0
  2  3  1  0
  2  4  1  0
  4  5  2  0
  4  6  1  0
  6  7  1  0
  7  8  2  0
  8  9  1  0
  9 10  2  0
 10 11  1  0
 10 12  1  0
 12 13  1  0
 12 14  2  0
 14  7  1  0
M  END
>  <target>  (408) 
-3.483

$$$$

     RDKit          3D

 15 15  0  0  0  0  0  0  0  0999 V2000
    3.1411   -1.4470    0.3388 C   0  0  0  0  0  0  0  0  0  0  0  0
    2.4745   -0.2956    0.8606 O   0  0  0  0  0  0  0  0  0  0  0  0
    2.2692    0.6186   -0.2136 N   0  0  0  0  0  0  0  0  0  0  0  0
    3.1976    1.7284   -0.1256 C   0  0  0  0  0  0  0  0  0  0  0  0
    0.9221    0.9185   -0.4716 C   0  0  0  0  0  0  0  0  0  0  0  0
    0.5859    1.9101   -1.1127 O   0  0  0  0  0  0  0  0  0  0  0  0
    0.0663   -0.0309    0.0513 N   0  0  0  0  0  0  0  0  0  0  0  0
   -1.3320   -0.1055   -0.0476 C   0  0  0  0  0  0  0  0  0  0  0  0
   -2.1019    0.7564   -0.8302 C   0  0  0  0  0  0  0  0  0  0  0  0
   -3.4934    0.6156   -0.8829 C   0  0  0  0  0  0  0  0  0  0  0  0
   -4.1285   -0.3914   -0.1548 C   0  0  0  0  0  0  0  0  0  0  0  0
   -5.8477   -0.5082   -0.2668 Cl  0  0  0  0  0  0  0  0  0  0  0  0
   -3.3645   -1.2610    0.6278 C   0  0  0  0  0  0  0  0  0  0  0  0
   -4.0726   -2.5358    1.5563 Cl  0  0  0  0  0  0  0  0  0  0  0  0
   -1.9725   -1.1170    0.6782 C   0  0  0  0  0  0  0  0  0  0  0  0
  1  2  1  0
  2  3  1  0
  3  4  1  0
  3  5  1  0
  5  6  2  0
  5  7  1  0
  7  8  1  0
  8  9  2  0
  9 10  1  0
 10 11  2  0
 11 12  1  0
 11 13  1  0
 13 14  1  0
 13 15  2  0
 15  8  1  0
M  END
>  <target>  (409) 
-3.592

$$$$

     RDKit          3D

  8  8  0  0  0  0  0  0  0  0999 V2000
    2.7639   -0.3267   -0.6287 O   0  0  0  0  0  0  0  0  0  0  0  0
    1.5354   -0.1138    0.0725 C   0  0  0  0  0  0  0  0  0  0  0  0
    0.6660   -1.3532   -0.1441 C   0  0  0  0  0  0  0  0  0  0  0  0
   -0.5498   -1.3971    0.7743 C   0  0  0  0  0  0  0  0  0  0  0  0
   -1.7822   -0.6615    0.2577 C   0  0  0  0  0  0  0  0  0  0  0  0
   -1.5534    0.6683   -0.4543 C   0  0  0  0  0  0  0  0  0  0  0  0
   -0.4493    1.5387    0.1366 C   0  0  0  0  0  0  0  0  0  0  0  0
    0.9296    1.1982   -0.4225 C   0  0  0  0  0  0  0  0  0  0  0  0
  1  2  1  0
  2  3  1  0
  3  4  1  0
  4  5  1  0
  5  6  1  0
  6  7  1  0
  7  8  1  0
  8  2  1  0
M  END
>  <target>  (410) 
-0.88

$$$$

     RDKit          3D

 21 21  0  0  0  0  0  0  0  0999 V2000
   -5.5478    1.7135   -0.5844 C   0  0  0  0  0  0  0  0  0  0  0  0
   -4.9894    0.0443   -0.3655 S   0  0  0  0  0  0  0  0  0  0  0  0
   -5.4903   -0.4334    0.9097 O   0  0  0  0  0  0  0  0  0  0  0  0
   -5.2564   -0.6882   -1.5888 O   0  0  0  0  0  0  0  0  0  0  0  0
   -3.2283    0.2213   -0.2209 C   0  0  0  0  0  0  0  0  0  0  0  0
   -2.6413    0.3000    1.0429 C   0  0  0  0  0  0  0  0  0  0  0  0
   -1.2556    0.4370    1.1484 C   0  0  0  0  0  0  0  0  0  0  0  0
   -0.4478    0.4889   -0.0015 C   0  0  0  0  0  0  0  0  0  0  0  0
   -1.0611    0.3916   -1.2619 C   0  0  0  0  0  0  0  0  0  0  0  0
   -2.4453    0.2525   -1.3756 C   0  0  0  0  0  0  0  0  0  0  0  0
    1.0608    0.6191    0.1467 C   0  0  0  0  0  0  0  0  0  0  0  0
    1.5951    1.2333   -1.0277 O   0  0  0  0  0  0  0  0  0  0  0  0
    1.7349   -0.7524    0.4481 C   0  0  0  0  0  0  0  0  0  0  0  0
    1.9591   -1.6008   -0.8160 C   0  0  0  0  0  0  0  0  0  0  0  0
    2.4761   -2.8805   -0.4320 O   0  0  0  0  0  0  0  0  0  0  0  0
    2.9939   -0.6434    1.2183 N   0  0  0  0  0  0  0  0  0  0  0  0
    4.0805    0.1139    0.8219 C   0  0  0  0  0  0  0  0  0  0  0  0
    4.0018    0.9296   -0.0988 O   0  0  0  0  0  0  0  0  0  0  0  0
    5.3681   -0.0720    1.6284 C   0  0  0  0  0  0  0  0  0  0  0  0
    5.1528    0.6596    3.2307 Cl  0  0  0  0  0  0  0  0  0  0  0  0
    5.7513   -1.8010    1.7728 Cl  0  0  0  0  0  0  0  0  0  0  0  0
  1  2  1  0
  2  3  2  0
  2  4  2  0
  2  5  1  0
  5  6  2  0
  6  7  1  0
  7  8  2  0
  8  9  1  0
  9 10  2  0
  8 11  1  0
 11 12  1  0
 11 13  1  0
 13 14  1  0
 14 15  1  0
 13 16  1  0
 16 17  1  0
 17 18  2  0
 17 19  1  0
 19 20  1  0
 19 21  1  0
 10  5  1  0
M  END
>  <target>  (411) 
-2.154

$$$$

     RDKit          3D

 16 16  0  0  0  0  0  0  0  0999 V2000
    3.8782   -0.0982    1.4290 C   0  0  0  0  0  0  0  0  0  0  0  0
    2.8920    0.5407    0.4618 C   0  0  0  0  0  0  0  0  0  0  0  0
    1.5650   -0.2277    0.4292 C   0  0  0  0  0  0  0  0  0  0  0  0
    0.4639    0.4649   -0.4206 C   0  0  0  0  0  0  0  0  0  0  0  0
    0.9097    0.5327   -1.8940 C   0  0  0  0  0  0  0  0  0  0  0  0
   -0.9694   -0.1999   -0.2422 C   0  0  0  0  0  0  0  0  0  0  0  0
   -0.9841   -1.6778   -0.7150 C   0  0  0  0  0  0  0  0  0  0  0  0
   -2.3339   -2.3850   -0.5801 C   0  0  0  0  0  0  0  0  0  0  0  0
   -1.9640    0.6339   -1.0559 C   0  0  0  0  0  0  0  0  0  0  0  0
   -2.3376    0.3500   -2.1915 O   0  0  0  0  0  0  0  0  0  0  0  0
   -2.3891    1.7988   -0.4699 N   0  0  0  0  0  0  0  0  0  0  0  0
   -2.3735    2.0465    0.8668 C   0  0  0  0  0  0  0  0  0  0  0  0
   -3.0678    3.4170    1.4989 S   0  0  0  0  0  0  0  0  0  0  0  0
   -1.8002    1.1107    1.6690 N   0  0  0  0  0  0  0  0  0  0  0  0
   -1.3366   -0.1074    1.2420 C   0  0  0  0  0  0  0  0  0  0  0  0
   -1.1854   -1.0205    2.0500 O   0  0  0  0  0  0  0  0  0  0  0  0
  1  2  1  0
  2  3  1  0
  3  4  1  0
  4  5  1  0
  4  6  1  0
  6  7  1  0
  7  8  1  0
  6  9  1  0
  9 10  2  0
  9 11  1  0
 11 12  1  0
 12 13  2  0
 12 14  1  0
 14 15  1  0
 15 16  2  0
 15  6  1  0
M  END
>  <target>  (412) 
-3.36

$$$$

     RDKit          3D

 13 13  0  0  0  0  0  0  0  0999 V2000
   -3.1762    0.8379    1.2040 C   0  0  0  0  0  0  0  0  0  0  0  0
   -3.1636   -0.5981    0.7520 C   0  0  0  0  0  0  0  0  0  0  0  0
   -4.1820   -1.2908    0.8182 O   0  0  0  0  0  0  0  0  0  0  0  0
   -2.0261   -1.1612    0.2607 N   0  0  0  0  0  0  0  0  0  0  0  0
   -0.8181   -0.5459    0.1178 C   0  0  0  0  0  0  0  0  0  0  0  0
   -0.4568    0.6825    0.4012 N   0  0  0  0  0  0  0  0  0  0  0  0
    0.8756    0.9071    0.1018 N   0  0  0  0  0  0  0  0  0  0  0  0
    1.4402   -0.1761   -0.3931 C   0  0  0  0  0  0  0  0  0  0  0  0
    0.4132   -1.5346   -0.5325 S   0  0  0  0  0  0  0  0  0  0  0  0
    3.1123   -0.3360   -0.9068 S   0  0  0  0  0  0  0  0  0  0  0  0
    3.9255    1.1215   -0.6772 N   0  0  0  0  0  0  0  0  0  0  0  0
    3.0867   -0.5470   -2.3371 O   0  0  0  0  0  0  0  0  0  0  0  0
    3.7345   -1.2764   -0.0016 O   0  0  0  0  0  0  0  0  0  0  0  0
  1  2  1  0
  2  3  2  0
  2  4  1  0
  4  5  1  0
  5  6  2  0
  6  7  1  0
  7  8  2  0
  8  9  1  0
  8 10  1  0
 10 11  1  0
 10 12  2  0
 10 13  2  0
  9  5  1  0
M  END
>  <target>  (413) 
-2.36

$$$$

     RDKit          3D

 10 10  0  0  0  0  0  0  0  0999 V2000
   -2.9970   -0.1678    0.1358 O   0  0  0  0  0  0  0  0  0  0  0  0
   -1.6379   -0.0905    0.0745 C   0  0  0  0  0  0  0  0  0  0  0  0
   -0.9413   -1.2517   -0.2496 C   0  0  0  0  0  0  0  0  0  0  0  0
    0.4525   -1.2275   -0.3259 C   0  0  0  0  0  0  0  0  0  0  0  0
    1.1334   -0.0287   -0.0738 C   0  0  0  0  0  0  0  0  0  0  0  0
    0.4272    1.1392    0.2525 C   0  0  0  0  0  0  0  0  0  0  0  0
   -0.9679    1.1044    0.3263 C   0  0  0  0  0  0  0  0  0  0  0  0
    2.5993    0.0060   -0.1518 N   0  0  0  0  0  0  0  0  0  0  0  0
    3.1873   -1.0453   -0.4428 O   0  0  0  0  0  0  0  0  0  0  0  0
    3.1628    1.0858    0.0782 O   0  0  0  0  0  0  0  0  0  0  0  0
  1  2  1  0
  2  3  2  0
  3  4  1  0
  4  5  2  0
  5  6  1  0
  6  7  2  0
  5  8  1  0
  8  9  1  0
  8 10  2  0
  7  2  1  0
M  CHG  2   8   1   9  -1
M  END
>  <target>  (414) 
-0.74

$$$$

     RDKit          3D

 18 21  0  0  0  0  0  0  0  0999 V2000
    1.8410   -2.6407   -1.4976 Cl  0  0  0  0  0  0  0  0  0  0  0  0
    1.4722   -1.0293   -1.1205 C   0  0  0  0  0  0  0  0  0  0  0  0
    1.0036   -0.0808   -1.9436 C   0  0  0  0  0  0  0  0  0  0  0  0
    0.6468   -0.2237   -3.5950 Cl  0  0  0  0  0  0  0  0  0  0  0  0
    0.8733    1.1980   -1.1447 C   0  0  0  0  0  0  0  0  0  0  0  0
    0.7958    2.6908   -2.0648 Cl  0  0  0  0  0  0  0  0  0  0  0  0
   -0.2591    1.0863   -0.0761 C   0  0  0  0  0  0  0  0  0  0  0  0
   -1.7089    0.6151   -0.3476 C   0  0  0  0  0  0  0  0  0  0  0  0
   -2.0559    0.0623    1.0548 C   0  0  0  0  0  0  0  0  0  0  0  0
   -0.9181   -0.9856    1.0413 C   0  0  0  0  0  0  0  0  0  0  0  0
   -1.3082   -1.6497   -0.2509 C   0  0  0  0  0  0  0  0  0  0  0  0
   -1.7774   -0.7000   -1.0750 C   0  0  0  0  0  0  0  0  0  0  0  0
    0.2938   -0.0329    0.8951 C   0  0  0  0  0  0  0  0  0  0  0  0
    1.6635   -0.4013    0.2431 C   0  0  0  0  0  0  0  0  0  0  0  0
    2.7387   -1.2414    1.3474 Cl  0  0  0  0  0  0  0  0  0  0  0  0
    2.1538    1.0153   -0.2438 C   0  0  0  0  0  0  0  0  0  0  0  0
    2.3530    2.2461    1.0611 Cl  0  0  0  0  0  0  0  0  0  0  0  0
    3.7283    1.0148   -1.1410 Cl  0  0  0  0  0  0  0  0  0  0  0  0
  1  2  1  0
  2  3  2  0
  3  4  1  0
  3  5  1  0
  5  6  1  0
  5  7  1  0
  7  8  1  0
  8  9  1  0
  9 10  1  0
 10 11  1  0
 11 12  2  0
 10 13  1  0
 13 14  1  0
 14 15  1  0
 14 16  1  0
 16 17  1  0
 16 18  1  0
 14  2  1  0
 16  5  1  0
 13  7  1  0
 12  8  1  0
M  END
>  <target>  (415) 
-6.307

$$$$

     RDKit          3D

  5  5  0  0  0  0  0  0  0  0999 V2000
    0.5429    0.8142    0.4078 C   0  0  0  0  0  0  0  0  0  0  0  0
   -0.7138    0.6674   -0.4112 C   0  0  0  0  0  0  0  0  0  0  0  0
   -1.0662   -0.7864   -0.1832 C   0  0  0  0  0  0  0  0  0  0  0  0
    0.1716   -1.4875    0.0033 O   0  0  0  0  0  0  0  0  0  0  0  0
    1.2171   -0.5222    0.1861 C   0  0  0  0  0  0  0  0  0  0  0  0
  1  2  1  0
  2  3  1  0
  3  4  1  0
  4  5  1  0
  5  1  1  0
M  END
>  <target>  (416) 
0.49

$$$$

     RDKit          3D

 10 10  0  0  0  0  0  0  0  0999 V2000
   -1.1313    1.7058    0.8959 N   0  0  0  0  0  0  0  0  0  0  0  0
   -0.2495    0.7788    0.3116 C   0  0  0  0  0  0  0  0  0  0  0  0
    1.1271    1.0301    0.4141 C   0  0  0  0  0  0  0  0  0  0  0  0
    2.0739    0.0955   -0.0196 C   0  0  0  0  0  0  0  0  0  0  0  0
    1.6650   -1.1335   -0.5301 C   0  0  0  0  0  0  0  0  0  0  0  0
    0.3069   -1.4359   -0.5951 C   0  0  0  0  0  0  0  0  0  0  0  0
   -0.6396   -0.4908   -0.1597 C   0  0  0  0  0  0  0  0  0  0  0  0
   -2.0538   -0.8596   -0.2394 N   0  0  0  0  0  0  0  0  0  0  0  0
   -2.3399   -2.0622   -0.1371 O   0  0  0  0  0  0  0  0  0  0  0  0
   -2.8818    0.0463   -0.4291 O   0  0  0  0  0  0  0  0  0  0  0  0
  1  2  1  0
  2  3  2  0
  3  4  1  0
  4  5  2  0
  5  6  1  0
  6  7  2  0
  7  8  1  0
  8  9  1  0
  8 10  2  0
  7  2  1  0
M  CHG  2   8   1   9  -1
M  END
>  <target>  (417) 
-1.96

$$$$

     RDKit          3D

 16 17  0  0  0  0  0  0  0  0999 V2000
    4.2056   -1.8199    0.7684 Cl  0  0  0  0  0  0  0  0  0  0  0  0
    3.0254   -0.6452    0.2974 C   0  0  0  0  0  0  0  0  0  0  0  0
    3.5003    0.5867   -0.1618 C   0  0  0  0  0  0  0  0  0  0  0  0
    2.6065    1.5762   -0.5619 C   0  0  0  0  0  0  0  0  0  0  0  0
    1.2340    1.3367   -0.5031 C   0  0  0  0  0  0  0  0  0  0  0  0
    0.7293    0.1056   -0.0413 C   0  0  0  0  0  0  0  0  0  0  0  0
    1.6444   -0.8934    0.3598 C   0  0  0  0  0  0  0  0  0  0  0  0
    1.0512   -2.4287    0.9225 Cl  0  0  0  0  0  0  0  0  0  0  0  0
   -0.7328   -0.0880    0.0019 C   0  0  0  0  0  0  0  0  0  0  0  0
   -1.3795   -0.6043   -1.1378 C   0  0  0  0  0  0  0  0  0  0  0  0
   -2.7585   -0.8112   -1.1519 C   0  0  0  0  0  0  0  0  0  0  0  0
   -3.5170   -0.5029   -0.0260 C   0  0  0  0  0  0  0  0  0  0  0  0
   -2.9000    0.0138    1.1170 C   0  0  0  0  0  0  0  0  0  0  0  0
   -3.9186    0.3751    2.4685 Cl  0  0  0  0  0  0  0  0  0  0  0  0
   -1.5115    0.2245    1.1387 C   0  0  0  0  0  0  0  0  0  0  0  0
   -0.7428    0.8757    2.5565 Cl  0  0  0  0  0  0  0  0  0  0  0  0
  1  2  1  0
  2  3  2  0
  3  4  1  0
  4  5  2  0
  5  6  1  0
  6  7  2  0
  7  8  1  0
  6  9  1  0
  9 10  2  0
 10 11  1  0
 11 12  2  0
 12 13  1  0
 13 14  1  0
 13 15  2  0
 15 16  1  0
  7  2  1  0
 15  9  1  0
M  END
>  <target>  (418) 
-7.28

$$$$

     RDKit          3D

 23 25  0  0  0  0  0  0  0  0999 V2000
    6.2118    0.2192   -0.7942 C   0  0  0  0  0  0  0  0  0  0  0  0
    4.8308   -0.1413   -1.3182 C   0  0  0  0  0  0  0  0  0  0  0  0
    3.8218   -0.2940   -0.1794 C   0  0  0  0  0  0  0  0  0  0  0  0
    2.4328   -0.6591   -0.7136 C   0  0  0  0  0  0  0  0  0  0  0  0
    1.4087   -0.8420    0.4090 C   0  0  0  0  0  0  0  0  0  0  0  0
    0.2393   -1.6647   -0.0691 C   0  0  0  0  0  0  0  0  0  0  0  0
    0.3460   -2.8134   -0.4767 O   0  0  0  0  0  0  0  0  0  0  0  0
   -0.9179   -0.8999    0.1390 N   0  0  0  0  0  0  0  0  0  0  0  0
   -0.5697    0.4001    0.5894 N   0  0  0  0  0  0  0  0  0  0  0  0
    0.8071    0.4670    0.8540 C   0  0  0  0  0  0  0  0  0  0  0  0
    1.4642    1.4017    1.2905 O   0  0  0  0  0  0  0  0  0  0  0  0
   -1.3064    1.5690    0.2109 C   0  0  0  0  0  0  0  0  0  0  0  0
   -2.3165    1.5091   -0.7634 C   0  0  0  0  0  0  0  0  0  0  0  0
   -3.0389    2.6503   -1.1271 C   0  0  0  0  0  0  0  0  0  0  0  0
   -2.7637    3.8725   -0.5229 C   0  0  0  0  0  0  0  0  0  0  0  0
   -1.7668    3.9533    0.4439 C   0  0  0  0  0  0  0  0  0  0  0  0
   -1.0451    2.8113    0.8070 C   0  0  0  0  0  0  0  0  0  0  0  0
   -2.1688   -1.5184    0.4619 C   0  0  0  0  0  0  0  0  0  0  0  0
   -3.0533   -0.9337    1.3832 C   0  0  0  0  0  0  0  0  0  0  0  0
   -4.2778   -1.5353    1.6920 C   0  0  0  0  0  0  0  0  0  0  0  0
   -4.6396   -2.7332    1.0849 C   0  0  0  0  0  0  0  0  0  0  0  0
   -3.7775   -3.3290    0.1702 C   0  0  0  0  0  0  0  0  0  0  0  0
   -2.5532   -2.7264   -0.1381 C   0  0  0  0  0  0  0  0  0  0  0  0
  1  2  1  0
  2  3  1  0
  3  4  1  0
  4  5  1  0
  5  6  1  0
  6  7  2  0
  6  8  1  0
  8  9  1  0
  9 10  1  0
 10 11  2  0
  9 12  1  0
 12 13  2  0
 13 14  1  0
 14 15  2  0
 15 16  1  0
 16 17  2  0
  8 18  1  0
 18 19  2  0
 19 20  1  0
 20 21  2  0
 21 22  1  0
 22 23  2  0
 10  5  1  0
 17 12  1  0
 23 18  1  0
M  END
>  <target>  (419) 
-3.81

$$$$

     RDKit          3D

 13 13  0  0  0  0  0  0  0  0999 V2000
   -0.2832   -2.0312   -0.0405 C   0  0  0  0  0  0  0  0  0  0  0  0
   -0.0745   -0.5399   -0.0211 C   0  0  0  0  0  0  0  0  0  0  0  0
    1.2086    0.0352    0.0834 C   0  0  0  0  0  0  0  0  0  0  0  0
    1.4153    1.4266    0.0606 C   0  0  0  0  0  0  0  0  0  0  0  0
    0.3255    2.2875   -0.0447 C   0  0  0  0  0  0  0  0  0  0  0  0
   -0.9625    1.7616   -0.1116 C   0  0  0  0  0  0  0  0  0  0  0  0
   -1.1515    0.3677   -0.0875 C   0  0  0  0  0  0  0  0  0  0  0  0
   -2.5313   -0.1041   -0.1222 N   0  0  0  0  0  0  0  0  0  0  0  0
   -2.8931   -0.8654    0.7837 O   0  0  0  0  0  0  0  0  0  0  0  0
   -3.2427    0.3088   -1.0471 O   0  0  0  0  0  0  0  0  0  0  0  0
    2.3960   -0.7983    0.2346 N   0  0  0  0  0  0  0  0  0  0  0  0
    3.3168   -0.6152   -0.5721 O   0  0  0  0  0  0  0  0  0  0  0  0
    2.4029   -1.6115    1.1672 O   0  0  0  0  0  0  0  0  0  0  0  0
  1  2  1  0
  2  3  2  0
  3  4  1  0
  4  5  2  0
  5  6  1  0
  6  7  2  0
  7  8  1  0
  8  9  1  0
  8 10  2  0
  3 11  1  0
 11 12  1  0
 11 13  2  0
  7  2  1  0
M  CHG  4   8   1   9  -1  11   1  12  -1
M  END
>  <target>  (420) 
-3.0

$$$$

     RDKit          3D

 23 26  0  0  0  0  0  0  0  0999 V2000
    5.3555    0.4333    0.8998 C   0  0  0  0  0  0  0  0  0  0  0  0
    4.3238   -0.6558    0.7570 C   0  0  0  0  0  0  0  0  0  0  0  0
    4.1888   -1.5087    1.6350 O   0  0  0  0  0  0  0  0  0  0  0  0
    3.4266   -0.6079   -0.4799 C   0  0  0  0  0  0  0  0  0  0  0  0
    2.9449   -2.0070   -0.9089 C   0  0  0  0  0  0  0  0  0  0  0  0
    1.4316   -1.9174   -1.0706 C   0  0  0  0  0  0  0  0  0  0  0  0
    1.1583   -0.4281   -1.3011 C   0  0  0  0  0  0  0  0  0  0  0  0
   -0.3149    0.0127   -1.1451 C   0  0  0  0  0  0  0  0  0  0  0  0
   -1.2410   -0.8178   -2.0464 C   0  0  0  0  0  0  0  0  0  0  0  0
   -2.6776   -0.3198   -1.9758 C   0  0  0  0  0  0  0  0  0  0  0  0
   -3.1887   -0.3055   -0.5553 C   0  0  0  0  0  0  0  0  0  0  0  0
   -4.3583   -0.9018   -0.2629 C   0  0  0  0  0  0  0  0  0  0  0  0
   -4.9614   -0.8164    1.0866 C   0  0  0  0  0  0  0  0  0  0  0  0
   -6.0105   -1.4117    1.3189 O   0  0  0  0  0  0  0  0  0  0  0  0
   -4.3007    0.0789    2.1000 C   0  0  0  0  0  0  0  0  0  0  0  0
   -2.7899    0.0599    1.9190 C   0  0  0  0  0  0  0  0  0  0  0  0
   -2.3232    0.4272    0.4777 C   0  0  0  0  0  0  0  0  0  0  0  0
   -2.5076    1.9471    0.2655 C   0  0  0  0  0  0  0  0  0  0  0  0
   -0.8152   -0.0175    0.3218 C   0  0  0  0  0  0  0  0  0  0  0  0
    0.1535    0.7758    1.2200 C   0  0  0  0  0  0  0  0  0  0  0  0
    1.5858    0.2539    1.1146 C   0  0  0  0  0  0  0  0  0  0  0  0
    2.1446    0.2642   -0.3281 C   0  0  0  0  0  0  0  0  0  0  0  0
    2.4230    1.7108   -0.7751 C   0  0  0  0  0  0  0  0  0  0  0  0
  1  2  1  0
  2  3  2  0
  2  4  1  0
  4  5  1  0
  5  6  1  0
  6  7  1  0
  7  8  1  0
  8  9  1  0
  9 10  1  0
 10 11  1  0
 11 12  2  0
 12 13  1  0
 13 14  2  0
 13 15  1  0
 15 16  1  0
 16 17  1  0
 17 18  1  0
 17 19  1  0
 19 20  1  0
 20 21  1  0
 21 22  1  0
 22 23  1  0
 22  4  1  0
 22  7  1  0
 19  8  1  0
 17 11  1  0
M  END
>  <target>  (421) 
-4.42

$$$$

     RDKit          3D

 17 17  0  0  0  0  0  0  0  0999 V2000
    4.3021   -0.6834   -0.6258 C   0  0  0  0  0  0  0  0  0  0  0  0
    3.5764    0.6537   -0.5891 C   0  0  0  0  0  0  0  0  0  0  0  0
    2.2737    0.5249    0.0476 N   0  0  0  0  0  0  0  0  0  0  0  0
    2.1551    0.7163    1.4856 C   0  0  0  0  0  0  0  0  0  0  0  0
    1.6781    2.1254    1.8051 C   0  0  0  0  0  0  0  0  0  0  0  0
    1.1782    0.1189   -0.6868 C   0  0  0  0  0  0  0  0  0  0  0  0
    1.3282   -0.1200   -1.9772 N   0  0  0  0  0  0  0  0  0  0  0  0
    0.2184   -0.5024   -2.5839 C   0  0  0  0  0  0  0  0  0  0  0  0
    0.3599   -0.8278   -4.2574 Cl  0  0  0  0  0  0  0  0  0  0  0  0
   -0.9864   -0.6663   -2.0667 N   0  0  0  0  0  0  0  0  0  0  0  0
   -1.0547   -0.4029   -0.7741 C   0  0  0  0  0  0  0  0  0  0  0  0
    0.0057   -0.0132   -0.0678 N   0  0  0  0  0  0  0  0  0  0  0  0
   -2.2668   -0.5407   -0.1291 N   0  0  0  0  0  0  0  0  0  0  0  0
   -2.3885   -0.1794    1.2756 C   0  0  0  0  0  0  0  0  0  0  0  0
   -2.0141   -1.3526    2.1692 C   0  0  0  0  0  0  0  0  0  0  0  0
   -3.4527   -0.9382   -0.8738 C   0  0  0  0  0  0  0  0  0  0  0  0
   -4.1205    0.2656   -1.5224 C   0  0  0  0  0  0  0  0  0  0  0  0
  1  2  1  0
  2  3  1  0
  3  4  1  0
  4  5  1  0
  3  6  1  0
  6  7  2  0
  7  8  1  0
  8  9  1  0
  8 10  2  0
 10 11  1  0
 11 12  2  0
 11 13  1  0
 13 14  1  0
 14 15  1  0
 13 16  1  0
 16 17  1  0
 12  6  1  0
M  END
>  <target>  (422) 
-4.4110000000000005

$$$$

     RDKit          3D

 18 19  0  0  0  0  0  0  0  0999 V2000
    5.6721   -0.0131    0.7402 Cl  0  0  0  0  0  0  0  0  0  0  0  0
    4.2437    0.4702   -0.2548 C   0  0  0  0  0  0  0  0  0  0  0  0
    4.8630    1.5205   -1.5820 Cl  0  0  0  0  0  0  0  0  0  0  0  0
    3.4006   -0.7405   -0.7537 C   0  0  0  0  0  0  0  0  0  0  0  0
    2.8295   -1.7547    0.6423 Cl  0  0  0  0  0  0  0  0  0  0  0  0
    4.4037   -1.8541   -1.7890 Cl  0  0  0  0  0  0  0  0  0  0  0  0
    1.9533   -0.2323   -1.8155 S   0  0  0  0  0  0  0  0  0  0  0  0
    0.6523   -0.2084   -0.7363 N   0  0  0  0  0  0  0  0  0  0  0  0
   -0.3811   -1.1185   -0.7724 C   0  0  0  0  0  0  0  0  0  0  0  0
   -0.5704   -2.0105   -1.5844 O   0  0  0  0  0  0  0  0  0  0  0  0
   -1.2053   -0.8826    0.4738 C   0  0  0  0  0  0  0  0  0  0  0  0
   -2.6771   -1.2540    0.3472 C   0  0  0  0  0  0  0  0  0  0  0  0
   -3.5734   -0.1304   -0.0660 C   0  0  0  0  0  0  0  0  0  0  0  0
   -3.1812    1.1449   -0.1595 C   0  0  0  0  0  0  0  0  0  0  0  0
   -1.7957    1.6161    0.1414 C   0  0  0  0  0  0  0  0  0  0  0  0
   -0.8941    0.5757    0.8180 C   0  0  0  0  0  0  0  0  0  0  0  0
    0.4977    0.7253    0.2572 C   0  0  0  0  0  0  0  0  0  0  0  0
    1.3106    1.5646    0.6169 O   0  0  0  0  0  0  0  0  0  0  0  0
  1  2  1  0
  2  3  1  0
  2  4  1  0
  4  5  1  0
  4  6  1  0
  4  7  1  0
  7  8  1  0
  8  9  1  0
  9 10  2  0
  9 11  1  0
 11 12  1  0
 12 13  1  0
 13 14  2  0
 14 15  1  0
 15 16  1  0
 16 17  1  0
 17 18  2  0
 16 11  1  0
 17  8  1  0
M  END
>  <target>  (423) 
-5.4

$$$$

     RDKit          3D

  9  9  0  0  0  0  0  0  0  0999 V2000
   -1.2615    0.5458    0.0057 C   0  0  0  0  0  0  0  0  0  0  0  0
   -2.9923    1.3273    0.0129 Br  0  0  0  0  0  0  0  0  0  0  0  0
   -1.0464   -0.8378    0.0328 C   0  0  0  0  0  0  0  0  0  0  0  0
   -2.4612   -2.1046    0.0801 Br  0  0  0  0  0  0  0  0  0  0  0  0
    0.2595   -1.3412    0.0256 C   0  0  0  0  0  0  0  0  0  0  0  0
    1.3411   -0.4623   -0.0086 C   0  0  0  0  0  0  0  0  0  0  0  0
    3.1037   -1.1449   -0.0184 Br  0  0  0  0  0  0  0  0  0  0  0  0
    1.1346    0.9149   -0.0357 C   0  0  0  0  0  0  0  0  0  0  0  0
   -0.1676    1.4186   -0.0285 C   0  0  0  0  0  0  0  0  0  0  0  0
  1  2  1  0
  1  3  2  0
  3  4  1  0
  3  5  1  0
  5  6  2  0
  6  7  1  0
  6  8  1  0
  8  9  2  0
  9  1  1  0
M  END
>  <target>  (424) 
-4.5

$$$$

     RDKit          3D

 20 22  0  0  0  0  0  0  0  0999 V2000
   -1.4803   -3.0699    2.3345 O   0  0  0  0  0  0  0  0  0  0  0  0
   -1.4158   -1.8786    1.5682 C   0  0  0  0  0  0  0  0  0  0  0  0
   -0.1232   -1.7103    0.9263 N   0  0  0  0  0  0  0  0  0  0  0  0
    0.1700   -0.5781    0.3821 C   0  0  0  0  0  0  0  0  0  0  0  0
    1.5172   -0.4759   -0.2658 C   0  0  0  0  0  0  0  0  0  0  0  0
    1.6882    0.1929   -1.4846 C   0  0  0  0  0  0  0  0  0  0  0  0
    2.9562    0.2697   -2.0642 C   0  0  0  0  0  0  0  0  0  0  0  0
    4.0496   -0.3279   -1.4368 C   0  0  0  0  0  0  0  0  0  0  0  0
    3.8786   -1.0114   -0.2333 C   0  0  0  0  0  0  0  0  0  0  0  0
    2.6135   -1.0910    0.3503 C   0  0  0  0  0  0  0  0  0  0  0  0
   -0.7320    0.6150    0.3387 C   0  0  0  0  0  0  0  0  0  0  0  0
   -0.1650    1.8812    0.5608 C   0  0  0  0  0  0  0  0  0  0  0  0
   -0.9244    3.0307    0.3589 C   0  0  0  0  0  0  0  0  0  0  0  0
   -0.2181    4.5773    0.6139 Cl  0  0  0  0  0  0  0  0  0  0  0  0
   -2.2441    2.9362   -0.0712 C   0  0  0  0  0  0  0  0  0  0  0  0
   -2.8213    1.6797   -0.2680 C   0  0  0  0  0  0  0  0  0  0  0  0
   -2.0865    0.5115   -0.0239 C   0  0  0  0  0  0  0  0  0  0  0  0
   -2.7735   -0.7009   -0.1778 N   0  0  0  0  0  0  0  0  0  0  0  0
   -2.5080   -1.8858    0.4645 C   0  0  0  0  0  0  0  0  0  0  0  0
   -3.1827   -2.8805    0.1876 O   0  0  0  0  0  0  0  0  0  0  0  0
  1  2  1  0
  2  3  1  0
  3  4  2  0
  4  5  1  0
  5  6  2  0
  6  7  1  0
  7  8  2  0
  8  9  1  0
  9 10  2  0
  4 11  1  0
 11 12  2  0
 12 13  1  0
 13 14  1  0
 13 15  2  0
 15 16  1  0
 16 17  2  0
 17 18  1  0
 18 19  1  0
 19 20  2  0
 10  5  1  0
 17 11  1  0
 19  2  1  0
M  END
>  <target>  (425) 
-3.952

$$$$

     RDKit          3D

 17 17  0  0  0  0  0  0  0  0999 V2000
    0.6428   -1.7262    1.9034 O   0  0  0  0  0  0  0  0  0  0  0  0
   -0.2687   -1.6268    1.0867 C   0  0  0  0  0  0  0  0  0  0  0  0
   -1.0419   -2.7224    0.8085 N   0  0  0  0  0  0  0  0  0  0  0  0
   -1.7361   -2.8971   -0.3476 C   0  0  0  0  0  0  0  0  0  0  0  0
   -2.0395   -4.0156   -0.7486 O   0  0  0  0  0  0  0  0  0  0  0  0
   -1.9976   -1.7845   -1.0812 N   0  0  0  0  0  0  0  0  0  0  0  0
   -1.2302   -0.6558   -0.9992 C   0  0  0  0  0  0  0  0  0  0  0  0
   -1.0464    0.0288   -2.0030 O   0  0  0  0  0  0  0  0  0  0  0  0
   -0.6702   -0.3264    0.3899 C   0  0  0  0  0  0  0  0  0  0  0  0
    0.5385    0.6767    0.2522 C   0  0  0  0  0  0  0  0  0  0  0  0
    0.9803    1.3245    1.5764 C   0  0  0  0  0  0  0  0  0  0  0  0
    1.7572    0.0236   -0.4598 C   0  0  0  0  0  0  0  0  0  0  0  0
    2.7590    1.0470   -1.0068 C   0  0  0  0  0  0  0  0  0  0  0  0
    3.8752    0.3667   -1.7858 C   0  0  0  0  0  0  0  0  0  0  0  0
   -1.8596    0.2405    1.2277 C   0  0  0  0  0  0  0  0  0  0  0  0
   -2.4585    1.5253    0.7164 C   0  0  0  0  0  0  0  0  0  0  0  0
   -3.7171    1.6397    0.2738 C   0  0  0  0  0  0  0  0  0  0  0  0
  1  2  2  0
  2  3  1  0
  3  4  1  0
  4  5  2  0
  4  6  1  0
  6  7  1  0
  7  8  2  0
  7  9  1  0
  9 10  1  0
 10 11  1  0
 10 12  1  0
 12 13  1  0
 13 14  1  0
  9 15  1  0
 15 16  1  0
 16 17  2  0
  9  2  1  0
M  END
>  <target>  (426) 
-2.356

$$$$

     RDKit          3D

 11 11  0  0  0  0  0  0  0  0999 V2000
    1.5863   -0.8028    0.0273 C   0  0  0  0  0  0  0  0  0  0  0  0
    2.3275   -1.9481   -0.0647 O   0  0  0  0  0  0  0  0  0  0  0  0
    2.2518    0.4250    0.0333 C   0  0  0  0  0  0  0  0  0  0  0  0
    3.7479    0.4933   -0.0588 C   0  0  0  0  0  0  0  0  0  0  0  0
    1.4914    1.5957    0.1276 C   0  0  0  0  0  0  0  0  0  0  0  0
    0.0972    1.5345    0.2135 C   0  0  0  0  0  0  0  0  0  0  0  0
   -0.5698    0.3011    0.2073 C   0  0  0  0  0  0  0  0  0  0  0  0
   -2.0849    0.2635    0.3019 C   0  0  0  0  0  0  0  0  0  0  0  0
   -2.7113   -0.3616   -0.9471 C   0  0  0  0  0  0  0  0  0  0  0  0
   -2.5519   -0.4604    1.5672 C   0  0  0  0  0  0  0  0  0  0  0  0
    0.1941   -0.8722    0.1128 C   0  0  0  0  0  0  0  0  0  0  0  0
  1  2  1  0
  1  3  2  0
  3  4  1  0
  3  5  1  0
  5  6  2  0
  6  7  1  0
  7  8  1  0
  8  9  1  0
  8 10  1  0
  7 11  2  0
 11  1  1  0
M  END
>  <target>  (427) 
-2.08

$$$$

     RDKit          3D

  7  7  0  0  0  0  0  0  0  0999 V2000
   -1.0449   -0.7559    0.4882 C   0  0  0  0  0  0  0  0  0  0  0  0
    0.4668   -1.6962    0.1346 S   0  0  0  0  0  0  0  0  0  0  0  0
    1.3804   -0.2712   -0.2773 C   0  0  0  0  0  0  0  0  0  0  0  0
    2.9656   -0.2280   -0.7504 S   0  0  0  0  0  0  0  0  0  0  0  0
    0.6053    0.8361   -0.1582 N   0  0  0  0  0  0  0  0  0  0  0  0
   -0.6921    0.6880    0.2403 C   0  0  0  0  0  0  0  0  0  0  0  0
   -1.4655    1.6265    0.3757 O   0  0  0  0  0  0  0  0  0  0  0  0
  1  2  1  0
  2  3  1  0
  3  4  2  0
  3  5  1  0
  5  6  1  0
  6  7  2  0
  6  1  1  0
M  END
>  <target>  (428) 
-1.77

$$$$

     RDKit          3D

 22 24  0  0  0  0  0  0  0  0999 V2000
   -5.9955    0.5584   -0.3195 O   0  0  0  0  0  0  0  0  0  0  0  0
   -4.6641    0.2748   -0.2578 C   0  0  0  0  0  0  0  0  0  0  0  0
   -3.8562    1.1178    0.4902 C   0  0  0  0  0  0  0  0  0  0  0  0
   -2.4825    0.8694    0.5694 C   0  0  0  0  0  0  0  0  0  0  0  0
   -1.8969   -0.2319   -0.0868 C   0  0  0  0  0  0  0  0  0  0  0  0
   -2.7536   -1.0744   -0.8189 C   0  0  0  0  0  0  0  0  0  0  0  0
   -2.3203   -2.1883   -1.4871 O   0  0  0  0  0  0  0  0  0  0  0  0
   -4.1239   -0.8204   -0.9176 C   0  0  0  0  0  0  0  0  0  0  0  0
   -0.4193   -0.3745   -0.0136 C   0  0  0  0  0  0  0  0  0  0  0  0
    0.2421    0.8427   -0.1642 O   0  0  0  0  0  0  0  0  0  0  0  0
    1.6117    0.8735   -0.1066 C   0  0  0  0  0  0  0  0  0  0  0  0
    2.2276    2.1120   -0.2838 C   0  0  0  0  0  0  0  0  0  0  0  0
    3.6162    2.2014   -0.2318 C   0  0  0  0  0  0  0  0  0  0  0  0
    4.1788    3.4303   -0.4114 O   0  0  0  0  0  0  0  0  0  0  0  0
    4.4005    1.0738   -0.0040 C   0  0  0  0  0  0  0  0  0  0  0  0
    3.7797   -0.1604    0.1727 C   0  0  0  0  0  0  0  0  0  0  0  0
    4.5977   -1.2348    0.3939 O   0  0  0  0  0  0  0  0  0  0  0  0
    2.3860   -0.2597    0.1202 C   0  0  0  0  0  0  0  0  0  0  0  0
    1.6975   -1.5373    0.2984 C   0  0  0  0  0  0  0  0  0  0  0  0
    2.3053   -2.5830    0.5159 O   0  0  0  0  0  0  0  0  0  0  0  0
    0.2195   -1.5380    0.2075 C   0  0  0  0  0  0  0  0  0  0  0  0
   -0.4173   -2.7592    0.3549 O   0  0  0  0  0  0  0  0  0  0  0  0
  1  2  1  0
  2  3  2  0
  3  4  1  0
  4  5  2  0
  5  6  1  0
  6  7  1  0
  6  8  2  0
  5  9  1  0
  9 10  1  0
 10 11  1  0
 11 12  2  0
 12 13  1  0
 13 14  1  0
 13 15  2  0
 15 16  1  0
 16 17  1  0
 16 18  2  0
 18 19  1  0
 19 20  2  0
 19 21  1  0
 21 22  1  0
  8  2  1  0
 18 11  1  0
 21  9  2  0
M  END
>  <target>  (429) 
-3.083

$$$$

     RDKit          3D

 21 25  0  0  0  0  0  0  0  0999 V2000
   -1.7561    2.9348   -0.2037 Cl  0  0  0  0  0  0  0  0  0  0  0  0
   -1.1489    1.2831   -0.0375 C   0  0  0  0  0  0  0  0  0  0  0  0
   -2.2367    0.2026    0.2723 C   0  0  0  0  0  0  0  0  0  0  0  0
   -3.4420    0.3117    0.4191 O   0  0  0  0  0  0  0  0  0  0  0  0
   -1.3155   -1.0598    0.3375 C   0  0  0  0  0  0  0  0  0  0  0  0
   -2.1482   -2.5812    0.6791 Cl  0  0  0  0  0  0  0  0  0  0  0  0
   -0.3306   -0.9515   -0.9119 C   0  0  0  0  0  0  0  0  0  0  0  0
   -0.5952   -2.0089   -2.3048 Cl  0  0  0  0  0  0  0  0  0  0  0  0
   -0.2162    0.6573   -1.1694 C   0  0  0  0  0  0  0  0  0  0  0  0
   -0.3632    1.2557   -2.8273 Cl  0  0  0  0  0  0  0  0  0  0  0  0
    0.0699    0.9751    0.9437 C   0  0  0  0  0  0  0  0  0  0  0  0
    0.3359    2.0324    2.3364 Cl  0  0  0  0  0  0  0  0  0  0  0  0
   -0.0445   -0.6337    1.2011 C   0  0  0  0  0  0  0  0  0  0  0  0
    0.1038   -1.2322    2.8588 Cl  0  0  0  0  0  0  0  0  0  0  0  0
    0.8711   -1.2178    0.0652 C   0  0  0  0  0  0  0  0  0  0  0  0
    1.4598   -2.8995    0.2385 Cl  0  0  0  0  0  0  0  0  0  0  0  0
    1.9574   -0.1773   -0.2383 C   0  0  0  0  0  0  0  0  0  0  0  0
    3.1513   -0.0535    1.0657 Cl  0  0  0  0  0  0  0  0  0  0  0  0
    2.7653   -0.4824   -1.7861 Cl  0  0  0  0  0  0  0  0  0  0  0  0
    1.0320    1.0454   -0.2970 C   0  0  0  0  0  0  0  0  0  0  0  0
    1.8507    2.5996   -0.6416 Cl  0  0  0  0  0  0  0  0  0  0  0  0
  1  2  1  0
  2  3  1  0
  3  4  2  0
  3  5  1  0
  5  6  1  0
  5  7  1  0
  7  8  1  0
  7  9  1  0
  9 10  1  0
  2 11  1  0
 11 12  1  0
 11 13  1  0
 13 14  1  0
 13 15  1  0
 15 16  1  0
 15 17  1  0
 17 18  1  0
 17 19  1  0
 17 20  1  0
 20 21  1  0
  9  2  1  0
 13  5  1  0
 15  7  1  0
 20  9  1  0
 20 11  1  0
M  END
>  <target>  (430) 
-5.2589999999999995

$$$$

     RDKit          3D

 16 15  0  0  0  0  0  0  0  0999 V2000
   -2.2465   -2.0483   -1.3108 C   0  0  0  0  0  0  0  0  0  0  0  0
   -1.8130   -0.6457   -0.9096 C   0  0  0  0  0  0  0  0  0  0  0  0
   -2.6431   -0.1052    0.1821 N   0  0  0  0  0  0  0  0  0  0  0  0
   -3.8443    0.6211   -0.2694 C   0  0  0  0  0  0  0  0  0  0  0  0
   -3.5702    2.1018   -0.4884 C   0  0  0  0  0  0  0  0  0  0  0  0
   -2.3402   -0.2542    1.5532 C   0  0  0  0  0  0  0  0  0  0  0  0
   -3.2864    0.3283    2.8264 S   0  0  0  0  0  0  0  0  0  0  0  0
   -0.8924   -1.2098    1.9447 S   0  0  0  0  0  0  0  0  0  0  0  0
    0.3931    0.2047    2.7263 S   0  0  0  0  0  0  0  0  0  0  0  0
    1.1256    0.8972    1.2668 C   0  0  0  0  0  0  0  0  0  0  0  0
    0.4315    2.3030    0.6378 S   0  0  0  0  0  0  0  0  0  0  0  0
    2.2672    0.2505    0.7415 N   0  0  0  0  0  0  0  0  0  0  0  0
    2.9734   -0.8556    1.4179 C   0  0  0  0  0  0  0  0  0  0  0  0
    2.6700   -2.2112    0.7958 C   0  0  0  0  0  0  0  0  0  0  0  0
    2.9168    0.7265   -0.4949 C   0  0  0  0  0  0  0  0  0  0  0  0
    3.9965    1.7659   -0.2240 C   0  0  0  0  0  0  0  0  0  0  0  0
  1  2  1  0
  2  3  1  0
  3  4  1  0
  4  5  1  0
  3  6  1  0
  6  7  2  0
  6  8  1  0
  8  9  1  0
  9 10  1  0
 10 11  2  0
 10 12  1  0
 12 13  1  0
 13 14  1  0
 12 15  1  0
 15 16  1  0
M  END
>  <target>  (431) 
-4.86

$$$$

     RDKit          3D

  6  6  0  0  0  0  0  0  0  0999 V2000
    0.0069   -1.4753   -0.0142 C   0  0  0  0  0  0  0  0  0  0  0  0
   -1.2986   -0.6908   -0.1150 C   0  0  0  0  0  0  0  0  0  0  0  0
   -1.1877    0.6750    0.5572 C   0  0  0  0  0  0  0  0  0  0  0  0
   -0.0069    1.4753    0.0142 C   0  0  0  0  0  0  0  0  0  0  0  0
    1.2986    0.6908    0.1150 C   0  0  0  0  0  0  0  0  0  0  0  0
    1.1877   -0.6750   -0.5572 C   0  0  0  0  0  0  0  0  0  0  0  0
  1  2  1  0
  2  3  1  0
  3  4  1  0
  4  5  1  0
  5  6  1  0
  6  1  1  0
M  END
>  <target>  (432) 
-3.1

$$$$

     RDKit          3D

 20 21  0  0  0  0  0  0  0  0999 V2000
   -2.6746    2.4303    1.6273 Cl  0  0  0  0  0  0  0  0  0  0  0  0
   -2.0449    1.0210    0.9108 C   0  0  0  0  0  0  0  0  0  0  0  0
   -1.2798    0.9611   -0.1877 C   0  0  0  0  0  0  0  0  0  0  0  0
   -0.8075    2.2924   -1.1427 Cl  0  0  0  0  0  0  0  0  0  0  0  0
   -0.9109   -0.4892   -0.5191 C   0  0  0  0  0  0  0  0  0  0  0  0
   -1.7489   -0.9204   -2.0732 Cl  0  0  0  0  0  0  0  0  0  0  0  0
   -1.6938   -1.1997    0.5915 C   0  0  0  0  0  0  0  0  0  0  0  0
   -2.3055   -0.3119    1.3883 C   0  0  0  0  0  0  0  0  0  0  0  0
   -3.2860   -0.6659    2.7335 Cl  0  0  0  0  0  0  0  0  0  0  0  0
   -1.8139   -2.8964    0.7240 Cl  0  0  0  0  0  0  0  0  0  0  0  0
    0.6601   -0.7666   -0.5616 C   0  0  0  0  0  0  0  0  0  0  0  0
    1.0637   -2.5101   -0.8789 Cl  0  0  0  0  0  0  0  0  0  0  0  0
    1.4629    0.0438   -1.5863 C   0  0  0  0  0  0  0  0  0  0  0  0
    2.4002    0.7862   -0.9801 C   0  0  0  0  0  0  0  0  0  0  0  0
    3.5171    1.8229   -1.7379 Cl  0  0  0  0  0  0  0  0  0  0  0  0
    2.3582    0.5475    0.4390 C   0  0  0  0  0  0  0  0  0  0  0  0
    1.4018   -0.3501    0.7134 C   0  0  0  0  0  0  0  0  0  0  0  0
    1.0650   -1.0031    2.2522 Cl  0  0  0  0  0  0  0  0  0  0  0  0
    3.4143    1.2726    1.5592 Cl  0  0  0  0  0  0  0  0  0  0  0  0
    1.2225   -0.0644   -3.2718 Cl  0  0  0  0  0  0  0  0  0  0  0  0
  1  2  1  0
  2  3  2  0
  3  4  1  0
  3  5  1  0
  5  6  1  0
  5  7  1  0
  7  8  2  0
  8  9  1  0
  7 10  1  0
  5 11  1  0
 11 12  1  0
 11 13  1  0
 13 14  2  0
 14 15  1  0
 14 16  1  0
 16 17  2  0
 17 18  1  0
 16 19  1  0
 13 20  1  0
  8  2  1  0
 17 11  1  0
M  END
>  <target>  (433) 
-7.278

$$$$

     RDKit          3D

 13 13  0  0  0  0  0  0  0  0999 V2000
   -2.8884    1.3514   -1.0448 C   0  0  0  0  0  0  0  0  0  0  0  0
   -2.5438    0.0841   -0.4145 N   0  0  0  0  0  0  0  0  0  0  0  0
   -3.5428   -0.4786    0.4788 C   0  0  0  0  0  0  0  0  0  0  0  0
   -1.2164   -0.2490   -0.2618 C   0  0  0  0  0  0  0  0  0  0  0  0
   -0.2107    0.3675   -0.7905 N   0  0  0  0  0  0  0  0  0  0  0  0
    1.0557   -0.1579   -0.4928 C   0  0  0  0  0  0  0  0  0  0  0  0
    1.5720   -1.1891   -1.2879 C   0  0  0  0  0  0  0  0  0  0  0  0
    2.8323   -1.7286   -1.0264 C   0  0  0  0  0  0  0  0  0  0  0  0
    3.5861   -1.2288    0.0312 C   0  0  0  0  0  0  0  0  0  0  0  0
    5.1388   -1.8931    0.3619 Cl  0  0  0  0  0  0  0  0  0  0  0  0
    3.0943   -0.1907    0.8226 C   0  0  0  0  0  0  0  0  0  0  0  0
    1.8296    0.3612    0.5612 C   0  0  0  0  0  0  0  0  0  0  0  0
    1.3106    1.4861    1.4112 C   0  0  0  0  0  0  0  0  0  0  0  0
  1  2  1  0
  2  3  1  0
  2  4  1  0
  4  5  2  3
  5  6  1  0
  6  7  2  0
  7  8  1  0
  8  9  2  0
  9 10  1  0
  9 11  1  0
 11 12  2  0
 12 13  1  0
 12  6  1  0
M  END
>  <target>  (434) 
-2.86

$$$$

     RDKit          3D

 20 23  0  0  0  0  0  0  0  0999 V2000
   -3.5568    1.6629   -0.8483 C   0  0  0  0  0  0  0  0  0  0  0  0
   -2.2705    1.1388   -0.1957 C   0  0  0  0  0  0  0  0  0  0  0  0
   -1.1440    2.1507   -0.3711 C   0  0  0  0  0  0  0  0  0  0  0  0
    0.1598    1.6781    0.2623 C   0  0  0  0  0  0  0  0  0  0  0  0
    0.5684    0.2892   -0.1780 C   0  0  0  0  0  0  0  0  0  0  0  0
   -0.4076   -0.6042   -0.6710 C   0  0  0  0  0  0  0  0  0  0  0  0
   -0.0021   -1.8592   -1.1475 C   0  0  0  0  0  0  0  0  0  0  0  0
    1.3298   -2.2563   -1.0813 C   0  0  0  0  0  0  0  0  0  0  0  0
    2.2981   -1.4150   -0.5287 C   0  0  0  0  0  0  0  0  0  0  0  0
    3.6287   -1.8519   -0.4366 C   0  0  0  0  0  0  0  0  0  0  0  0
    4.6016   -1.0362    0.1235 C   0  0  0  0  0  0  0  0  0  0  0  0
    5.8737   -1.5182    0.1933 O   0  0  0  0  0  0  0  0  0  0  0  0
    4.2779    0.2227    0.5991 C   0  0  0  0  0  0  0  0  0  0  0  0
    2.9562    0.6682    0.5068 C   0  0  0  0  0  0  0  0  0  0  0  0
    1.9315   -0.1283   -0.0614 C   0  0  0  0  0  0  0  0  0  0  0  0
   -1.8913   -0.2651   -0.7213 C   0  0  0  0  0  0  0  0  0  0  0  0
   -2.7216   -1.2151    0.1657 C   0  0  0  0  0  0  0  0  0  0  0  0
   -2.6523   -0.6187    1.5657 C   0  0  0  0  0  0  0  0  0  0  0  0
   -2.5635    0.8543    1.2720 C   0  0  0  0  0  0  0  0  0  0  0  0
   -2.7070    1.7218    2.1257 O   0  0  0  0  0  0  0  0  0  0  0  0
  1  2  1  0
  2  3  1  0
  3  4  1  0
  4  5  1  0
  5  6  2  0
  6  7  1  0
  7  8  2  0
  8  9  1  0
  9 10  2  0
 10 11  1  0
 11 12  1  0
 11 13  2  0
 13 14  1  0
 14 15  2  0
  6 16  1  0
 16 17  1  0
 17 18  1  0
 18 19  1  0
 19 20  2  0
 15  5  1  0
 15  9  1  0
 16  2  1  0
 19  2  1  0
M  END
>  <target>  (435) 
-5.24

$$$$

     RDKit          3D

  9  8  0  0  0  0  0  0  0  0999 V2000
   -4.6201   -0.2861   -0.4323 C   0  0  0  0  0  0  0  0  0  0  0  0
   -3.3818    0.2915    0.2344 C   0  0  0  0  0  0  0  0  0  0  0  0
   -2.1005   -0.2599   -0.3905 C   0  0  0  0  0  0  0  0  0  0  0  0
   -0.8573    0.3236    0.2829 C   0  0  0  0  0  0  0  0  0  0  0  0
    0.4250   -0.2283   -0.3424 C   0  0  0  0  0  0  0  0  0  0  0  0
    1.6682    0.3552    0.3310 C   0  0  0  0  0  0  0  0  0  0  0  0
    2.9485   -0.1956   -0.2932 C   0  0  0  0  0  0  0  0  0  0  0  0
    4.1910    0.3812    0.3725 C   0  0  0  0  0  0  0  0  0  0  0  0
    5.3575   -0.1421   -0.2483 O   0  0  0  0  0  0  0  0  0  0  0  0
  1  2  1  0
  2  3  1  0
  3  4  1  0
  4  5  1  0
  5  6  1  0
  6  7  1  0
  7  8  1  0
  8  9  1  0
M  END
>  <target>  (436) 
-2.39

$$$$

     RDKit          3D

  5  4  0  0  0  0  0  0  0  0999 V2000
   -1.9079   -0.2278    0.6717 C   0  0  0  0  0  0  0  0  0  0  0  0
   -0.9874   -1.0232   -0.2360 C   0  0  0  0  0  0  0  0  0  0  0  0
   -0.0672    0.0218   -1.4134 S   0  0  0  0  0  0  0  0  0  0  0  0
    0.9483    1.0359   -0.2885 C   0  0  0  0  0  0  0  0  0  0  0  0
    1.9397    0.2175    0.5184 C   0  0  0  0  0  0  0  0  0  0  0  0
  1  2  1  0
  2  3  1  0
  3  4  1  0
  4  5  1  0
M  END
>  <target>  (437) 
-1.34

$$$$

     RDKit          3D

  4  3  0  0  0  0  0  0  0  0999 V2000
   -1.9706   -0.8956   -0.0217 Cl  0  0  0  0  0  0  0  0  0  0  0  0
   -0.6803    0.3321   -0.0472 C   0  0  0  0  0  0  0  0  0  0  0  0
    0.6803   -0.3321    0.0472 C   0  0  0  0  0  0  0  0  0  0  0  0
    1.9706    0.8956    0.0217 Cl  0  0  0  0  0  0  0  0  0  0  0  0
  1  2  1  0
  2  3  1  0
  3  4  1  0
M  END
>  <target>  (438) 
-1.06

$$$$

     RDKit          3D

  6  5  0  0  0  0  0  0  0  0999 V2000
    1.9529    0.5467   -0.4773 C   0  0  0  0  0  0  0  0  0  0  0  0
    0.9638   -0.4227    0.1609 C   0  0  0  0  0  0  0  0  0  0  0  0
   -0.5182   -0.2267   -0.2288 C   0  0  0  0  0  0  0  0  0  0  0  0
   -1.0195    1.1854    0.0899 C   0  0  0  0  0  0  0  0  0  0  0  0
   -1.3787   -1.2550    0.5175 C   0  0  0  0  0  0  0  0  0  0  0  0
   -0.7309   -0.5163   -1.9937 Cl  0  0  0  0  0  0  0  0  0  0  0  0
  1  2  1  0
  2  3  1  0
  3  4  1  0
  3  5  1  0
  3  6  1  0
M  END
>  <target>  (439) 
-2.51

$$$$

     RDKit          3D

  4  3  0  0  0  0  0  0  0  0999 V2000
   -1.9662   -0.9481   -0.1342 Cl  0  0  0  0  0  0  0  0  0  0  0  0
   -0.7046    0.2968    0.0269 C   0  0  0  0  0  0  0  0  0  0  0  0
    0.6673   -0.3386   -0.0322 C   0  0  0  0  0  0  0  0  0  0  0  0
    2.0349    1.0387    0.1456 Br  0  0  0  0  0  0  0  0  0  0  0  0
  1  2  1  0
  2  3  1  0
  3  4  1  0
M  END
>  <target>  (440) 
-1.32

$$$$

     RDKit          3D

 10 10  0  0  0  0  0  0  0  0999 V2000
   -2.7947    0.1327    0.4096 N   0  0  0  0  0  0  0  0  0  0  0  0
   -1.4214   -0.0060    0.1899 C   0  0  0  0  0  0  0  0  0  0  0  0
   -0.5602   -0.2561    1.2635 C   0  0  0  0  0  0  0  0  0  0  0  0
    0.8263   -0.2757    1.0819 C   0  0  0  0  0  0  0  0  0  0  0  0
    1.3576    0.0004   -0.1827 C   0  0  0  0  0  0  0  0  0  0  0  0
    0.5117    0.3088   -1.2538 C   0  0  0  0  0  0  0  0  0  0  0  0
   -0.8723    0.3238   -1.0537 C   0  0  0  0  0  0  0  0  0  0  0  0
    2.8116   -0.0146   -0.3823 N   0  0  0  0  0  0  0  0  0  0  0  0
    3.5253   -0.2862    0.5940 O   0  0  0  0  0  0  0  0  0  0  0  0
    3.2411    0.2419   -1.5164 O   0  0  0  0  0  0  0  0  0  0  0  0
  1  2  1  0
  2  3  2  0
  3  4  1  0
  4  5  2  0
  5  6  1  0
  6  7  2  0
  5  8  1  0
  8  9  1  0
  8 10  2  0
  7  2  1  0
M  CHG  2   8   1   9  -1
M  END
>  <target>  (441) 
-2.37

$$$$

     RDKit          3D

 23 24  0  0  0  0  0  0  0  0999 V2000
   -4.4150    0.8309   -3.1755 O   0  0  0  0  0  0  0  0  0  0  0  0
   -3.1586    1.2280   -2.6344 C   0  0  0  0  0  0  0  0  0  0  0  0
   -2.8120    0.3766   -1.4104 C   0  0  0  0  0  0  0  0  0  0  0  0
   -1.4433    0.6367   -1.0566 O   0  0  0  0  0  0  0  0  0  0  0  0
   -1.0009   -0.1471    0.0459 C   0  0  0  0  0  0  0  0  0  0  0  0
    0.3342    0.2541    0.3783 O   0  0  0  0  0  0  0  0  0  0  0  0
    1.3262   -0.4404   -0.3845 C   0  0  0  0  0  0  0  0  0  0  0  0
    1.8426   -1.6659    0.4018 C   0  0  0  0  0  0  0  0  0  0  0  0
    0.8309   -2.2189    1.2620 O   0  0  0  0  0  0  0  0  0  0  0  0
    3.0702   -1.2878    1.2261 C   0  0  0  0  0  0  0  0  0  0  0  0
    3.4914   -2.4230    2.0013 O   0  0  0  0  0  0  0  0  0  0  0  0
    4.1875   -0.8119    0.2726 C   0  0  0  0  0  0  0  0  0  0  0  0
    5.0563    0.0554    0.9833 O   0  0  0  0  0  0  0  0  0  0  0  0
    3.7094   -0.1531   -0.8967 O   0  0  0  0  0  0  0  0  0  0  0  0
    2.4760    0.5498   -0.6680 C   0  0  0  0  0  0  0  0  0  0  0  0
    2.1718    1.3949   -1.9107 C   0  0  0  0  0  0  0  0  0  0  0  0
    3.2555    2.2913   -2.1642 O   0  0  0  0  0  0  0  0  0  0  0  0
   -1.8576    0.0663    1.3057 C   0  0  0  0  0  0  0  0  0  0  0  0
   -1.4904   -0.8475    2.3599 O   0  0  0  0  0  0  0  0  0  0  0  0
   -3.3331   -0.1661    0.9819 C   0  0  0  0  0  0  0  0  0  0  0  0
   -4.1357    0.2025    2.1170 O   0  0  0  0  0  0  0  0  0  0  0  0
   -3.7655    0.6554   -0.2326 C   0  0  0  0  0  0  0  0  0  0  0  0
   -3.7471    2.0447    0.1317 O   0  0  0  0  0  0  0  0  0  0  0  0
  1  2  1  0
  2  3  1  0
  3  4  1  0
  4  5  1  0
  5  6  1  0
  6  7  1  0
  7  8  1  0
  8  9  1  0
  8 10  1  0
 10 11  1  0
 10 12  1  0
 12 13  1  0
 12 14  1  0
 14 15  1  0
 15 16  1  0
 16 17  1  0
  5 18  1  0
 18 19  1  0
 18 20  1  0
 20 21  1  0
 20 22  1  0
 22 23  1  0
 22  3  1  0
 15  7  1  0
M  END
>  <target>  (442) 
-0.244

$$$$

     RDKit          3D

 20 22  0  0  0  0  0  0  0  0999 V2000
   -3.2946   -1.3974   -1.4364 C   0  0  0  0  0  0  0  0  0  0  0  0
   -2.3057   -1.7652   -0.3301 C   0  0  0  0  0  0  0  0  0  0  0  0
   -1.1816   -0.8098   -0.2745 N   0  0  0  0  0  0  0  0  0  0  0  0
    0.0026   -1.3820    0.2591 C   0  0  0  0  0  0  0  0  0  0  0  0
   -0.1054   -2.5628    0.9354 N   0  0  0  0  0  0  0  0  0  0  0  0
    1.0002   -3.1386    1.4424 C   0  0  0  0  0  0  0  0  0  0  0  0
    2.2582   -2.6041    1.3056 C   0  0  0  0  0  0  0  0  0  0  0  0
    2.3822   -1.4110    0.6030 C   0  0  0  0  0  0  0  0  0  0  0  0
    1.2571   -0.7601    0.0617 C   0  0  0  0  0  0  0  0  0  0  0  0
    1.4409    0.4356   -0.7160 N   0  0  0  0  0  0  0  0  0  0  0  0
    2.7019    0.6111   -1.4509 C   0  0  0  0  0  0  0  0  0  0  0  0
    3.6566    1.5774   -0.7594 C   0  0  0  0  0  0  0  0  0  0  0  0
    0.5037    1.4659   -0.8761 C   0  0  0  0  0  0  0  0  0  0  0  0
    0.6988    2.4143   -1.6438 O   0  0  0  0  0  0  0  0  0  0  0  0
   -0.7037    1.5577   -0.0398 C   0  0  0  0  0  0  0  0  0  0  0  0
   -1.0740    2.8278    0.4326 C   0  0  0  0  0  0  0  0  0  0  0  0
   -2.2565    2.9863    1.1399 C   0  0  0  0  0  0  0  0  0  0  0  0
   -3.0386    1.8676    1.3306 C   0  0  0  0  0  0  0  0  0  0  0  0
   -2.7119    0.6391    0.8724 N   0  0  0  0  0  0  0  0  0  0  0  0
   -1.5424    0.4742    0.1908 C   0  0  0  0  0  0  0  0  0  0  0  0
  1  2  1  0
  2  3  1  0
  3  4  1  0
  4  5  2  0
  5  6  1  0
  6  7  2  0
  7  8  1  0
  8  9  2  0
  9 10  1  0
 10 11  1  0
 11 12  1  0
 10 13  1  0
 13 14  2  0
 13 15  1  0
 15 16  2  0
 16 17  1  0
 17 18  2  0
 18 19  1  0
 19 20  2  0
  9  4  1  0
 20  3  1  0
 20 15  1  0
M  END
>  <target>  (443) 
-2.86

$$$$

     RDKit          3D

  7  7  0  0  0  0  0  0  0  0999 V2000
    3.0329    0.4044    0.0226 Cl  0  0  0  0  0  0  0  0  0  0  0  0
    1.3271    0.1769    0.0099 C   0  0  0  0  0  0  0  0  0  0  0  0
    0.8009   -1.1141   -0.0070 C   0  0  0  0  0  0  0  0  0  0  0  0
   -0.5827   -1.2976   -0.0173 C   0  0  0  0  0  0  0  0  0  0  0  0
   -1.4331   -0.1911   -0.0107 C   0  0  0  0  0  0  0  0  0  0  0  0
   -0.9025    1.0996    0.0063 C   0  0  0  0  0  0  0  0  0  0  0  0
    0.4809    1.2850    0.0166 C   0  0  0  0  0  0  0  0  0  0  0  0
  1  2  1  0
  2  3  2  0
  3  4  1  0
  4  5  2  0
  5  6  1  0
  6  7  2  0
  7  2  1  0
M  END
>  <target>  (444) 
-2.38

$$$$

     RDKit          3D

  9  8  0  0  0  0  0  0  0  0999 V2000
    4.3004    0.9344   -0.2097 C   0  0  0  0  0  0  0  0  0  0  0  0
    3.2714   -0.1335    0.1253 C   0  0  0  0  0  0  0  0  0  0  0  0
    1.8469    0.3682   -0.1094 C   0  0  0  0  0  0  0  0  0  0  0  0
    0.8149   -0.7090    0.2288 C   0  0  0  0  0  0  0  0  0  0  0  0
   -0.6114   -0.2068   -0.0064 C   0  0  0  0  0  0  0  0  0  0  0  0
   -1.6427   -1.2872    0.3334 C   0  0  0  0  0  0  0  0  0  0  0  0
   -3.0831   -0.8546    0.0423 C   0  0  0  0  0  0  0  0  0  0  0  0
   -3.5547    0.2576    0.9351 C   0  0  0  0  0  0  0  0  0  0  0  0
   -3.9661    1.4524    0.4923 C   0  0  0  0  0  0  0  0  0  0  0  0
  1  2  1  0
  2  3  1  0
  3  4  1  0
  4  5  1  0
  5  6  1  0
  6  7  1  0
  7  8  1  0
  8  9  2  0
M  END
>  <target>  (445) 
-5.05

$$$$

     RDKit          3D

  8  8  0  0  0  0  0  0  0  0999 V2000
   -3.2858    0.2456    0.0509 Br  0  0  0  0  0  0  0  0  0  0  0  0
   -1.4010    0.1047    0.0217 C   0  0  0  0  0  0  0  0  0  0  0  0
   -0.8020   -1.1542   -0.0144 C   0  0  0  0  0  0  0  0  0  0  0  0
    0.5909   -1.2589   -0.0360 C   0  0  0  0  0  0  0  0  0  0  0  0
    1.3726   -0.1026   -0.0213 C   0  0  0  0  0  0  0  0  0  0  0  0
    3.4450   -0.2575   -0.0533 I   0  0  0  0  0  0  0  0  0  0  0  0
    0.7722    1.1570    0.0149 C   0  0  0  0  0  0  0  0  0  0  0  0
   -0.6208    1.2605    0.0365 C   0  0  0  0  0  0  0  0  0  0  0  0
  1  2  1  0
  2  3  2  0
  3  4  1  0
  4  5  2  0
  5  6  1  0
  5  7  1  0
  7  8  2  0
  8  2  1  0
M  END
>  <target>  (446) 
-4.56

$$$$

     RDKit          3D

  7  6  0  0  0  0  0  0  0  0999 V2000
   -1.5271    1.4215   -0.4343 C   0  0  0  0  0  0  0  0  0  0  0  0
   -0.7515    0.8389    0.7380 C   0  0  0  0  0  0  0  0  0  0  0  0
   -0.0344   -0.4984    0.4621 C   0  0  0  0  0  0  0  0  0  0  0  0
   -1.0450   -1.6230    0.2015 C   0  0  0  0  0  0  0  0  0  0  0  0
    0.6657   -0.8334    1.6692 O   0  0  0  0  0  0  0  0  0  0  0  0
    0.9863   -0.4397   -0.6945 C   0  0  0  0  0  0  0  0  0  0  0  0
    2.0807    0.6067   -0.5177 C   0  0  0  0  0  0  0  0  0  0  0  0
  1  2  1  0
  2  3  1  0
  3  4  1  0
  3  5  1  0
  3  6  1  0
  6  7  1  0
M  END
>  <target>  (447) 
-0.36

$$$$

     RDKit          3D

 11 11  0  0  0  0  0  0  0  0999 V2000
    4.5343    0.2174    0.4983 C   0  0  0  0  0  0  0  0  0  0  0  0
    3.0773    0.3652    0.9067 C   0  0  0  0  0  0  0  0  0  0  0  0
    2.1345   -0.0789   -0.2114 C   0  0  0  0  0  0  0  0  0  0  0  0
    0.6698    0.0713    0.2032 C   0  0  0  0  0  0  0  0  0  0  0  0
   -0.2723   -0.3738   -0.9175 C   0  0  0  0  0  0  0  0  0  0  0  0
   -1.7197   -0.2297   -0.5188 C   0  0  0  0  0  0  0  0  0  0  0  0
   -2.4067    0.9680   -0.7572 C   0  0  0  0  0  0  0  0  0  0  0  0
   -3.7414    1.1062   -0.3729 C   0  0  0  0  0  0  0  0  0  0  0  0
   -4.3996    0.0514    0.2567 C   0  0  0  0  0  0  0  0  0  0  0  0
   -3.7234   -1.1417    0.5045 C   0  0  0  0  0  0  0  0  0  0  0  0
   -2.3886   -1.2817    0.1210 C   0  0  0  0  0  0  0  0  0  0  0  0
  1  2  1  0
  2  3  1  0
  3  4  1  0
  4  5  1  0
  5  6  1  0
  6  7  2  0
  7  8  1  0
  8  9  2  0
  9 10  1  0
 10 11  2  0
 11  6  1  0
M  END
>  <target>  (448) 
-4.64

$$$$

     RDKit          3D

 11 11  0  0  0  0  0  0  0  0999 V2000
    2.8956    0.3586    1.3264 N   0  0  0  0  0  0  0  0  0  0  0  0
    2.0648   -0.1397    0.3777 C   0  0  0  0  0  0  0  0  0  0  0  0
    2.4154   -1.0154   -0.3962 O   0  0  0  0  0  0  0  0  0  0  0  0
    0.8442    0.4618    0.3933 N   0  0  0  0  0  0  0  0  0  0  0  0
   -0.1947   -0.0938   -0.4179 C   0  0  0  0  0  0  0  0  0  0  0  0
   -1.1876    0.8912   -0.7113 N   0  0  0  0  0  0  0  0  0  0  0  0
   -2.4546    0.4450   -0.4310 C   0  0  0  0  0  0  0  0  0  0  0  0
   -3.4795    1.0472   -0.6935 O   0  0  0  0  0  0  0  0  0  0  0  0
   -2.3712   -0.7561    0.1843 N   0  0  0  0  0  0  0  0  0  0  0  0
   -1.0702   -1.1402    0.3133 C   0  0  0  0  0  0  0  0  0  0  0  0
   -0.6957   -2.1278    0.9262 O   0  0  0  0  0  0  0  0  0  0  0  0
  1  2  1  0
  2  3  2  0
  2  4  1  0
  4  5  1  0
  5  6  1  0
  6  7  1  0
  7  8  2  0
  7  9  1  0
  9 10  1  0
 10 11  2  0
 10  5  1  0
M  END
>  <target>  (449) 
-1.6

$$$$

     RDKit          3D

 26 28  0  0  0  0  0  0  0  0999 V2000
    0.2026    3.5289   -0.2481 O   0  0  0  0  0  0  0  0  0  0  0  0
    0.6252    2.2841   -0.8159 C   0  0  0  0  0  0  0  0  0  0  0  0
   -0.3089    1.9205   -1.9721 C   0  0  0  0  0  0  0  0  0  0  0  0
   -1.6561    1.7871   -1.4902 O   0  0  0  0  0  0  0  0  0  0  0  0
    0.1154    0.6500   -2.7245 C   0  0  0  0  0  0  0  0  0  0  0  0
   -0.1122   -0.5894   -2.0194 O   0  0  0  0  0  0  0  0  0  0  0  0
    0.8728   -1.0432   -1.2131 C   0  0  0  0  0  0  0  0  0  0  0  0
    1.9004   -0.4656   -0.9004 O   0  0  0  0  0  0  0  0  0  0  0  0
    0.5435   -2.4193   -0.7867 C   0  0  0  0  0  0  0  0  0  0  0  0
    0.6156   -3.4259   -1.7605 C   0  0  0  0  0  0  0  0  0  0  0  0
    0.4170   -4.7585   -1.4011 C   0  0  0  0  0  0  0  0  0  0  0  0
    0.1625   -5.0901   -0.0713 C   0  0  0  0  0  0  0  0  0  0  0  0
    0.0883   -4.0895    0.9007 C   0  0  0  0  0  0  0  0  0  0  0  0
    0.2474   -2.7404    0.5543 C   0  0  0  0  0  0  0  0  0  0  0  0
    0.1608   -1.7760    1.6045 N   0  0  0  0  0  0  0  0  0  0  0  0
   -0.6567   -0.6101    1.4604 C   0  0  0  0  0  0  0  0  0  0  0  0
   -1.9392   -0.7547    0.9222 C   0  0  0  0  0  0  0  0  0  0  0  0
   -2.6239    0.3811    0.5557 C   0  0  0  0  0  0  0  0  0  0  0  0
   -2.1221    1.6355    0.6758 N   0  0  0  0  0  0  0  0  0  0  0  0
   -0.9793    1.7761    1.3747 C   0  0  0  0  0  0  0  0  0  0  0  0
   -0.5448    3.0703    1.6050 C   0  0  0  0  0  0  0  0  0  0  0  0
    0.6527    3.3242    2.2614 C   0  0  0  0  0  0  0  0  0  0  0  0
    1.1630    4.9458    2.5217 Cl  0  0  0  0  0  0  0  0  0  0  0  0
    1.4413    2.2736    2.7017 C   0  0  0  0  0  0  0  0  0  0  0  0
    1.0238    0.9609    2.4844 C   0  0  0  0  0  0  0  0  0  0  0  0
   -0.1908    0.6850    1.8080 C   0  0  0  0  0  0  0  0  0  0  0  0
  1  2  1  0
  2  3  1  0
  3  4  1  0
  3  5  1  0
  5  6  1  0
  6  7  1  0
  7  8  2  0
  7  9  1  0
  9 10  2  0
 10 11  1  0
 11 12  2  0
 12 13  1  0
 13 14  2  0
 14 15  1  0
 15 16  1  0
 16 17  2  0
 17 18  1  0
 18 19  2  0
 19 20  1  0
 20 21  2  0
 21 22  1  0
 22 23  1  0
 22 24  2  0
 24 25  1  0
 25 26  2  0
 14  9  1  0
 26 16  1  0
 26 20  1  0
M  END
>  <target>  (450) 
-4.571000000000001

$$$$

     RDKit          3D

 18 19  0  0  0  0  0  0  0  0999 V2000
   -1.6778   -0.3784   -3.3884 Cl  0  0  0  0  0  0  0  0  0  0  0  0
   -0.1305   -0.0552   -2.5353 C   0  0  0  0  0  0  0  0  0  0  0  0
    1.1780   -0.8083   -3.5108 Cl  0  0  0  0  0  0  0  0  0  0  0  0
   -0.1494   -0.5992   -1.0790 C   0  0  0  0  0  0  0  0  0  0  0  0
   -1.3014   -0.0827   -0.2068 C   0  0  0  0  0  0  0  0  0  0  0  0
   -1.9278   -0.9683    0.6898 C   0  0  0  0  0  0  0  0  0  0  0  0
   -2.9659   -0.5354    1.5185 C   0  0  0  0  0  0  0  0  0  0  0  0
   -3.3852    0.7900    1.4654 C   0  0  0  0  0  0  0  0  0  0  0  0
   -4.6602    1.3266    2.4874 Cl  0  0  0  0  0  0  0  0  0  0  0  0
   -2.7735    1.6856    0.5928 C   0  0  0  0  0  0  0  0  0  0  0  0
   -1.7340    1.2539   -0.2367 C   0  0  0  0  0  0  0  0  0  0  0  0
    1.1842   -0.4044   -0.3475 C   0  0  0  0  0  0  0  0  0  0  0  0
    1.7700    0.8642   -0.1966 C   0  0  0  0  0  0  0  0  0  0  0  0
    2.9815    1.0122    0.4841 C   0  0  0  0  0  0  0  0  0  0  0  0
    3.6167   -0.1035    1.0226 C   0  0  0  0  0  0  0  0  0  0  0  0
    5.1060    0.0826    1.8626 Cl  0  0  0  0  0  0  0  0  0  0  0  0
    3.0507   -1.3677    0.8877 C   0  0  0  0  0  0  0  0  0  0  0  0
    1.8393   -1.5176    0.2082 C   0  0  0  0  0  0  0  0  0  0  0  0
  1  2  1  0
  2  3  1  0
  2  4  1  0
  4  5  1  0
  5  6  2  0
  6  7  1  0
  7  8  2  0
  8  9  1  0
  8 10  1  0
 10 11  2  0
  4 12  1  0
 12 13  2  0
 13 14  1  0
 14 15  2  0
 15 16  1  0
 15 17  1  0
 17 18  2  0
 11  5  1  0
 18 12  1  0
M  END
>  <target>  (451) 
-7.2

$$$$

     RDKit          3D

 24 27  0  0  0  0  0  0  0  0999 V2000
    6.3861   -0.2751    0.3931 C   0  0  0  0  0  0  0  0  0  0  0  0
    5.3549   -0.5939   -0.6456 C   0  0  0  0  0  0  0  0  0  0  0  0
    5.6108   -0.9217   -1.7952 O   0  0  0  0  0  0  0  0  0  0  0  0
    4.1088   -0.4589   -0.1157 O   0  0  0  0  0  0  0  0  0  0  0  0
    3.0124   -0.7424   -1.0071 C   0  0  0  0  0  0  0  0  0  0  0  0
    2.6994    0.5223   -1.8142 C   0  0  0  0  0  0  0  0  0  0  0  0
    1.6166    1.2721   -1.0303 C   0  0  0  0  0  0  0  0  0  0  0  0
    1.3126    0.4264    0.2196 C   0  0  0  0  0  0  0  0  0  0  0  0
   -0.1271    0.5340    0.7669 C   0  0  0  0  0  0  0  0  0  0  0  0
   -0.5034    1.9966    1.0455 C   0  0  0  0  0  0  0  0  0  0  0  0
   -1.8851    2.1029    1.6739 C   0  0  0  0  0  0  0  0  0  0  0  0
   -2.9332    1.4313    0.8197 C   0  0  0  0  0  0  0  0  0  0  0  0
   -4.0459    2.1061    0.4811 C   0  0  0  0  0  0  0  0  0  0  0  0
   -5.1552    1.4587   -0.2540 C   0  0  0  0  0  0  0  0  0  0  0  0
   -6.1295    2.1270   -0.5892 O   0  0  0  0  0  0  0  0  0  0  0  0
   -5.0776   -0.0265   -0.4848 C   0  0  0  0  0  0  0  0  0  0  0  0
   -3.6360   -0.4478   -0.7282 C   0  0  0  0  0  0  0  0  0  0  0  0
   -2.6555   -0.0195    0.4054 C   0  0  0  0  0  0  0  0  0  0  0  0
   -2.8921   -0.9234    1.6367 C   0  0  0  0  0  0  0  0  0  0  0  0
   -1.1815   -0.1408   -0.1494 C   0  0  0  0  0  0  0  0  0  0  0  0
   -0.7605   -1.5917   -0.4626 C   0  0  0  0  0  0  0  0  0  0  0  0
    0.6417   -1.6661   -1.0676 C   0  0  0  0  0  0  0  0  0  0  0  0
    1.7251   -1.0050   -0.1840 C   0  0  0  0  0  0  0  0  0  0  0  0
    2.0052   -1.8827    1.0489 C   0  0  0  0  0  0  0  0  0  0  0  0
  1  2  1  0
  2  3  2  0
  2  4  1  0
  4  5  1  0
  5  6  1  0
  6  7  1  0
  7  8  1  0
  8  9  1  0
  9 10  1  0
 10 11  1  0
 11 12  1  0
 12 13  2  0
 13 14  1  0
 14 15  2  0
 14 16  1  0
 16 17  1  0
 17 18  1  0
 18 19  1  0
 18 20  1  0
 20 21  1  0
 21 22  1  0
 22 23  1  0
 23 24  1  0
 18 12  1  0
 20  9  1  0
 23  5  1  0
 23  8  1  0
M  END
>  <target>  (452) 
-5.184

$$$$

     RDKit          3D

 11 12  0  0  0  0  0  0  0  0999 V2000
   -1.3636    3.0975   -0.0872 Cl  0  0  0  0  0  0  0  0  0  0  0  0
   -1.2455    1.3683   -0.0367 C   0  0  0  0  0  0  0  0  0  0  0  0
   -2.4486    0.6553   -0.0124 C   0  0  0  0  0  0  0  0  0  0  0  0
   -2.4341   -0.7342    0.0283 C   0  0  0  0  0  0  0  0  0  0  0  0
   -1.2169   -1.4129    0.0449 C   0  0  0  0  0  0  0  0  0  0  0  0
    0.0023   -0.7155    0.0210 C   0  0  0  0  0  0  0  0  0  0  0  0
    1.2186   -1.4183    0.0383 C   0  0  0  0  0  0  0  0  0  0  0  0
    2.4387   -0.7440    0.0151 C   0  0  0  0  0  0  0  0  0  0  0  0
    2.4598    0.6438   -0.0257 C   0  0  0  0  0  0  0  0  0  0  0  0
    1.2598    1.3580   -0.0434 C   0  0  0  0  0  0  0  0  0  0  0  0
    0.0055    0.7014   -0.0206 C   0  0  0  0  0  0  0  0  0  0  0  0
  1  2  1  0
  2  3  2  0
  3  4  1  0
  4  5  2  0
  5  6  1  0
  6  7  2  0
  7  8  1  0
  8  9  2  0
  9 10  1  0
 10 11  2  0
 11  2  1  0
 11  6  1  0
M  END
>  <target>  (453) 
-3.93

$$$$

     RDKit          3D

 19 21  0  0  0  0  0  0  0  0999 V2000
   -2.5449   -1.7282   -1.2370 C   0  0  0  0  0  0  0  0  0  0  0  0
   -1.0955   -1.2553   -1.1921 C   0  0  0  0  0  0  0  0  0  0  0  0
   -0.6950   -0.8951    0.1915 N   0  0  0  0  0  0  0  0  0  0  0  0
    0.7052   -1.0785    0.3555 C   0  0  0  0  0  0  0  0  0  0  0  0
    1.0890   -2.2296    1.0771 C   0  0  0  0  0  0  0  0  0  0  0  0
    2.4278   -2.5398    1.2913 C   0  0  0  0  0  0  0  0  0  0  0  0
    3.4068   -1.7006    0.7838 C   0  0  0  0  0  0  0  0  0  0  0  0
    3.0417   -0.5581    0.0646 C   0  0  0  0  0  0  0  0  0  0  0  0
    1.6913   -0.2144   -0.1618 C   0  0  0  0  0  0  0  0  0  0  0  0
    1.3863    0.9451   -0.9520 N   0  0  0  0  0  0  0  0  0  0  0  0
    2.3939    1.3900   -1.9141 C   0  0  0  0  0  0  0  0  0  0  0  0
    0.2516    1.7663   -0.8469 C   0  0  0  0  0  0  0  0  0  0  0  0
    0.0912    2.7401   -1.5928 O   0  0  0  0  0  0  0  0  0  0  0  0
   -0.7883    1.5834    0.1927 C   0  0  0  0  0  0  0  0  0  0  0  0
   -1.3934    2.7514    0.6991 C   0  0  0  0  0  0  0  0  0  0  0  0
   -2.4253    2.6801    1.6351 C   0  0  0  0  0  0  0  0  0  0  0  0
   -2.8716    1.4392    2.0704 C   0  0  0  0  0  0  0  0  0  0  0  0
   -2.2853    0.2787    1.5649 C   0  0  0  0  0  0  0  0  0  0  0  0
   -1.2464    0.3338    0.6149 C   0  0  0  0  0  0  0  0  0  0  0  0
  1  2  1  0
  2  3  1  0
  3  4  1  0
  4  5  2  0
  5  6  1  0
  6  7  2  0
  7  8  1  0
  8  9  2  0
  9 10  1  0
 10 11  1  0
 10 12  1  0
 12 13  2  0
 12 14  1  0
 14 15  2  0
 15 16  1  0
 16 17  2  0
 17 18  1  0
 18 19  2  0
  9  4  1  0
 19  3  1  0
 19 14  1  0
M  END
>  <target>  (454) 
-4.749

$$$$

     RDKit          3D

  7  6  0  0  0  0  0  0  0  0999 V2000
   -3.3003   -0.1056    0.0001 C   0  0  0  0  0  0  0  0  0  0  0  0
   -1.9312   -0.7536    0.1309 C   0  0  0  0  0  0  0  0  0  0  0  0
   -0.8092    0.2449   -0.1553 C   0  0  0  0  0  0  0  0  0  0  0  0
    0.5683   -0.4135   -0.0205 C   0  0  0  0  0  0  0  0  0  0  0  0
    1.7086    0.5784   -0.2681 C   0  0  0  0  0  0  0  0  0  0  0  0
    3.0661   -0.0785   -0.0559 C   0  0  0  0  0  0  0  0  0  0  0  0
    1.6324    1.0536   -1.6091 O   0  0  0  0  0  0  0  0  0  0  0  0
  1  2  1  0
  2  3  1  0
  3  4  1  0
  4  5  1  0
  5  6  1  0
  5  7  1  0
M  END
>  <target>  (455) 
-0.89

$$$$

     RDKit          3D

  8  8  0  0  0  0  0  0  0  0999 V2000
   -3.4713   -0.0950    0.3425 C   0  0  0  0  0  0  0  0  0  0  0  0
   -2.1080    0.4669   -0.0300 C   0  0  0  0  0  0  0  0  0  0  0  0
   -1.0273   -0.6148    0.0138 C   0  0  0  0  0  0  0  0  0  0  0  0
    0.3431   -0.0932   -0.4218 C   0  0  0  0  0  0  0  0  0  0  0  0
    1.4163   -1.1797   -0.4020 C   0  0  0  0  0  0  0  0  0  0  0  0
    2.7193   -0.3954   -0.4748 C   0  0  0  0  0  0  0  0  0  0  0  0
    2.4393    0.9368    0.2195 C   0  0  0  0  0  0  0  0  0  0  0  0
    0.9388    0.9667    0.5042 C   0  0  0  0  0  0  0  0  0  0  0  0
  1  2  1  0
  2  3  1  0
  3  4  1  0
  4  5  1  0
  5  6  1  0
  6  7  1  0
  7  8  1  0
  8  4  1  0
M  END
>  <target>  (456) 
-4.74

$$$$

     RDKit          3D

 18 19  0  0  0  0  0  0  0  0999 V2000
   -5.5728    1.0695   -0.9048 C   0  0  0  0  0  0  0  0  0  0  0  0
   -4.2891    0.3635   -1.2957 C   0  0  0  0  0  0  0  0  0  0  0  0
   -3.3300    0.5712   -0.2527 O   0  0  0  0  0  0  0  0  0  0  0  0
   -2.1196   -0.0138   -0.4751 C   0  0  0  0  0  0  0  0  0  0  0  0
   -1.8418   -0.6694   -1.4704 O   0  0  0  0  0  0  0  0  0  0  0  0
   -1.2367    0.2506    0.6314 C   0  0  0  0  0  0  0  0  0  0  0  0
   -1.5037    0.9076    1.8205 C   0  0  0  0  0  0  0  0  0  0  0  0
   -0.4180    0.9190    2.6508 N   0  0  0  0  0  0  0  0  0  0  0  0
    0.5222    0.2881    1.9891 C   0  0  0  0  0  0  0  0  0  0  0  0
    0.0930   -0.1191    0.7517 N   0  0  0  0  0  0  0  0  0  0  0  0
    0.9002   -0.8627   -0.2272 C   0  0  0  0  0  0  0  0  0  0  0  0
    0.7677   -2.3694    0.0178 C   0  0  0  0  0  0  0  0  0  0  0  0
    2.3306   -0.3321   -0.2934 C   0  0  0  0  0  0  0  0  0  0  0  0
    2.5672    0.9034   -0.9253 C   0  0  0  0  0  0  0  0  0  0  0  0
    3.8549    1.4367   -1.0013 C   0  0  0  0  0  0  0  0  0  0  0  0
    4.9282    0.7460   -0.4466 C   0  0  0  0  0  0  0  0  0  0  0  0
    4.7141   -0.4764    0.1848 C   0  0  0  0  0  0  0  0  0  0  0  0
    3.4259   -1.0125    0.2628 C   0  0  0  0  0  0  0  0  0  0  0  0
  1  2  1  0
  2  3  1  0
  3  4  1  0
  4  5  2  0
  4  6  1  0
  6  7  2  0
  7  8  1  0
  8  9  2  0
  9 10  1  0
 10 11  1  0
 11 12  1  0
 11 13  1  0
 13 14  2  0
 14 15  1  0
 15 16  2  0
 16 17  1  0
 17 18  2  0
 10  6  1  0
 18 13  1  0
M  END
>  <target>  (457) 
-4.735

$$$$

     RDKit          3D

  9  9  0  0  0  0  0  0  0  0999 V2000
    2.5571    0.1417    0.0495 O   0  0  0  0  0  0  0  0  0  0  0  0
    1.1988    0.0357    0.0169 C   0  0  0  0  0  0  0  0  0  0  0  0
    0.6575   -1.2178   -0.2454 C   0  0  0  0  0  0  0  0  0  0  0  0
   -0.7281   -1.3776   -0.2893 C   0  0  0  0  0  0  0  0  0  0  0  0
   -1.5667   -0.2804   -0.0702 C   0  0  0  0  0  0  0  0  0  0  0  0
   -3.2725   -0.5453   -0.1383 Cl  0  0  0  0  0  0  0  0  0  0  0  0
   -1.0114    0.9787    0.1934 C   0  0  0  0  0  0  0  0  0  0  0  0
   -1.9859    2.3790    0.4738 Cl  0  0  0  0  0  0  0  0  0  0  0  0
    0.3782    1.1373    0.2371 C   0  0  0  0  0  0  0  0  0  0  0  0
  1  2  1  0
  2  3  2  0
  3  4  1  0
  4  5  2  0
  5  6  1  0
  5  7  1  0
  7  8  1  0
  7  9  2  0
  9  2  1  0
M  END
>  <target>  (458) 
-1.25

$$$$

     RDKit          3D

 28 30  0  0  0  0  0  0  0  0999 V2000
   -4.1007   -0.3243    0.5389 C   0  0  0  0  0  0  0  0  0  0  0  0
   -3.4424   -0.7241   -0.7619 C   0  0  0  0  0  0  0  0  0  0  0  0
   -4.3891   -1.4098   -1.7181 C   0  0  0  0  0  0  0  0  0  0  0  0
   -1.9718   -1.1089   -0.6985 C   0  0  0  0  0  0  0  0  0  0  0  0
   -1.4377   -2.2071   -1.5199 C   0  0  0  0  0  0  0  0  0  0  0  0
   -0.2399   -2.2712   -2.1220 C   0  0  0  0  0  0  0  0  0  0  0  0
    0.9097   -0.9887   -2.0224 Cl  0  0  0  0  0  0  0  0  0  0  0  0
    0.1930   -3.6681   -3.0438 Cl  0  0  0  0  0  0  0  0  0  0  0  0
   -2.3869    0.1842   -1.3754 C   0  0  0  0  0  0  0  0  0  0  0  0
   -2.0750    1.5036   -0.7795 C   0  0  0  0  0  0  0  0  0  0  0  0
   -2.7987    2.4735   -0.9377 O   0  0  0  0  0  0  0  0  0  0  0  0
   -0.9121    1.4860   -0.0902 O   0  0  0  0  0  0  0  0  0  0  0  0
   -0.5641    2.7333    0.5423 C   0  0  0  0  0  0  0  0  0  0  0  0
   -1.3130    2.9109    1.8069 C   0  0  0  0  0  0  0  0  0  0  0  0
   -1.9075    3.0365    2.7979 N   0  0  0  0  0  0  0  0  0  0  0  0
    0.9374    2.7050    0.7885 C   0  0  0  0  0  0  0  0  0  0  0  0
    1.7137    3.8582    0.5858 C   0  0  0  0  0  0  0  0  0  0  0  0
    3.0905    3.8385    0.8210 C   0  0  0  0  0  0  0  0  0  0  0  0
    3.7105    2.6670    1.2540 C   0  0  0  0  0  0  0  0  0  0  0  0
    2.9566    1.5114    1.4463 C   0  0  0  0  0  0  0  0  0  0  0  0
    3.6285    0.3969    1.8968 O   0  0  0  0  0  0  0  0  0  0  0  0
    3.2589   -0.8195    1.3694 C   0  0  0  0  0  0  0  0  0  0  0  0
    3.0014   -1.8548    2.2679 C   0  0  0  0  0  0  0  0  0  0  0  0
    2.6487   -3.1169    1.7893 C   0  0  0  0  0  0  0  0  0  0  0  0
    2.5706   -3.3452    0.4149 C   0  0  0  0  0  0  0  0  0  0  0  0
    2.8509   -2.3140   -0.4825 C   0  0  0  0  0  0  0  0  0  0  0  0
    3.2019   -1.0502   -0.0075 C   0  0  0  0  0  0  0  0  0  0  0  0
    1.5740    1.5360    1.2435 C   0  0  0  0  0  0  0  0  0  0  0  0
  1  2  1  0
  2  3  1  0
  2  4  1  0
  4  5  1  0
  5  6  2  3
  6  7  1  0
  6  8  1  0
  4  9  1  0
  9 10  1  0
 10 11  2  0
 10 12  1  0
 12 13  1  0
 13 14  1  0
 14 15  3  0
 13 16  1  0
 16 17  2  0
 17 18  1  0
 18 19  2  0
 19 20  1  0
 20 21  1  0
 21 22  1  0
 22 23  2  0
 23 24  1  0
 24 25  2  0
 25 26  1  0
 26 27  2  0
 20 28  2  0
  9  2  1  0
 28 16  1  0
 27 22  1  0
M  END
>  <target>  (459) 
-8.017000000000001

$$$$

     RDKit          3D

  9 10  0  0  0  0  0  0  0  0999 V2000
   -1.8171    0.6001   -0.0161 C   0  0  0  0  0  0  0  0  0  0  0  0
   -1.7347   -0.7987   -0.0340 C   0  0  0  0  0  0  0  0  0  0  0  0
   -0.4985   -1.4571   -0.0265 C   0  0  0  0  0  0  0  0  0  0  0  0
    0.6207   -0.6344   -0.0003 C   0  0  0  0  0  0  0  0  0  0  0  0
    1.9315   -1.0158    0.0120 O   0  0  0  0  0  0  0  0  0  0  0  0
    2.6074    0.1680    0.0371 C   0  0  0  0  0  0  0  0  0  0  0  0
    1.8612    1.2516    0.0419 N   0  0  0  0  0  0  0  0  0  0  0  0
    0.5831    0.7515    0.0180 C   0  0  0  0  0  0  0  0  0  0  0  0
   -0.6607    1.3954    0.0101 C   0  0  0  0  0  0  0  0  0  0  0  0
  1  2  2  0
  2  3  1  0
  3  4  2  0
  4  5  1  0
  5  6  1  0
  6  7  2  0
  7  8  1  0
  8  9  2  0
  8  4  1  0
  9  1  1  0
M  END
>  <target>  (460) 
-1.16

$$$$

     RDKit          3D

  6  5  0  0  0  0  0  0  0  0999 V2000
   -2.7405   -0.1425   -0.3256 C   0  0  0  0  0  0  0  0  0  0  0  0
   -1.3961   -0.6717    0.1478 C   0  0  0  0  0  0  0  0  0  0  0  0
   -0.2564    0.2718   -0.2355 C   0  0  0  0  0  0  0  0  0  0  0  0
    1.0921   -0.2631    0.2415 C   0  0  0  0  0  0  0  0  0  0  0  0
    2.2330    0.6721   -0.1370 C   0  0  0  0  0  0  0  0  0  0  0  0
    3.4689    0.1299    0.3086 O   0  0  0  0  0  0  0  0  0  0  0  0
  1  2  1  0
  2  3  1  0
  3  4  1  0
  4  5  1  0
  5  6  1  0
M  END
>  <target>  (461) 
-0.6

$$$$

     RDKit          3D

 11 11  0  0  0  0  0  0  0  0999 V2000
   -1.4034   -1.7257    1.8009 C   0  0  0  0  0  0  0  0  0  0  0  0
   -1.4453   -1.2970    0.3410 C   0  0  0  0  0  0  0  0  0  0  0  0
   -0.7351   -0.0271    0.1432 N   0  0  0  0  0  0  0  0  0  0  0  0
   -1.5557    1.1865    0.2436 C   0  0  0  0  0  0  0  0  0  0  0  0
   -2.0946    1.5968   -1.1195 C   0  0  0  0  0  0  0  0  0  0  0  0
    0.6302    0.0232   -0.1228 C   0  0  0  0  0  0  0  0  0  0  0  0
    1.4469   -1.1222   -0.0881 C   0  0  0  0  0  0  0  0  0  0  0  0
    2.8233   -1.0782   -0.3546 C   0  0  0  0  0  0  0  0  0  0  0  0
    3.4346    0.1265   -0.6691 C   0  0  0  0  0  0  0  0  0  0  0  0
    2.6663    1.2803   -0.7147 C   0  0  0  0  0  0  0  0  0  0  0  0
    1.2909    1.2230   -0.4452 C   0  0  0  0  0  0  0  0  0  0  0  0
  1  2  1  0
  2  3  1  0
  3  4  1  0
  4  5  1  0
  3  6  1  0
  6  7  2  0
  7  8  1  0
  8  9  2  0
  9 10  1  0
 10 11  2  0
 11  6  1  0
M  END
>  <target>  (462) 
-3.03

$$$$

     RDKit          3D

  8  8  0  0  0  0  0  0  0  0999 V2000
   -1.7770   -2.0292    0.2627 F   0  0  0  0  0  0  0  0  0  0  0  0
   -0.9029   -1.0226    0.1328 C   0  0  0  0  0  0  0  0  0  0  0  0
   -1.3748    0.2857    0.0510 C   0  0  0  0  0  0  0  0  0  0  0  0
   -0.4700    1.3396   -0.0845 C   0  0  0  0  0  0  0  0  0  0  0  0
    0.8986    1.0715   -0.1366 C   0  0  0  0  0  0  0  0  0  0  0  0
    1.3476   -0.2447   -0.0529 C   0  0  0  0  0  0  0  0  0  0  0  0
    2.6625   -0.4947   -0.1036 F   0  0  0  0  0  0  0  0  0  0  0  0
    0.4562   -1.3003    0.0820 C   0  0  0  0  0  0  0  0  0  0  0  0
  1  2  1  0
  2  3  2  0
  3  4  1  0
  4  5  2  0
  5  6  1  0
  6  7  1  0
  6  8  2  0
  8  2  1  0
M  END
>  <target>  (463) 
-2.0

$$$$

     RDKit          3D

  5  4  0  0  0  0  0  0  0  0999 V2000
   -2.4397    0.2452   -0.0786 Cl  0  0  0  0  0  0  0  0  0  0  0  0
   -0.8215   -0.4800    0.0785 C   0  0  0  0  0  0  0  0  0  0  0  0
    0.2533    0.5777   -0.1043 C   0  0  0  0  0  0  0  0  0  0  0  0
    1.5823   -0.0271    0.0264 C   0  0  0  0  0  0  0  0  0  0  0  0
    2.6281   -0.5175    0.1319 N   0  0  0  0  0  0  0  0  0  0  0  0
  1  2  1  0
  2  3  1  0
  3  4  1  0
  4  5  3  0
M  END
>  <target>  (464) 
-0.29

$$$$

     RDKit          3D

 11 11  0  0  0  0  0  0  0  0999 V2000
   -1.6277    0.7077    1.1972 C   0  0  0  0  0  0  0  0  0  0  0  0
   -1.5603   -0.1178   -0.0990 C   0  0  0  0  0  0  0  0  0  0  0  0
   -1.4773    0.8369   -1.3022 C   0  0  0  0  0  0  0  0  0  0  0  0
   -2.8645   -0.9331   -0.2196 C   0  0  0  0  0  0  0  0  0  0  0  0
   -0.3724   -1.1210   -0.0793 C   0  0  0  0  0  0  0  0  0  0  0  0
    1.0155   -0.5324    0.0346 C   0  0  0  0  0  0  0  0  0  0  0  0
    1.7457   -0.1986   -1.1144 C   0  0  0  0  0  0  0  0  0  0  0  0
    3.0281    0.3425   -1.0087 C   0  0  0  0  0  0  0  0  0  0  0  0
    3.5962    0.5519    0.2460 C   0  0  0  0  0  0  0  0  0  0  0  0
    2.8834    0.2183    1.3956 C   0  0  0  0  0  0  0  0  0  0  0  0
    1.6009   -0.3229    1.2909 C   0  0  0  0  0  0  0  0  0  0  0  0
  1  2  1  0
  2  3  1  0
  2  4  1  0
  2  5  1  0
  5  6  1  0
  6  7  2  0
  7  8  1  0
  8  9  2  0
  9 10  1  0
 10 11  2  0
 11  6  1  0
M  END
>  <target>  (465) 
-4.15

$$$$

     RDKit          3D

 17 18  0  0  0  0  0  0  0  0999 V2000
   -1.1927    0.0012    2.4316 O   0  0  0  0  0  0  0  0  0  0  0  0
   -1.1548   -0.4395    1.2834 C   0  0  0  0  0  0  0  0  0  0  0  0
   -1.6381   -1.6940    1.0262 N   0  0  0  0  0  0  0  0  0  0  0  0
   -2.1488   -2.0745   -0.1728 C   0  0  0  0  0  0  0  0  0  0  0  0
   -2.9548   -2.9950   -0.2607 O   0  0  0  0  0  0  0  0  0  0  0  0
   -1.8101   -1.3259   -1.2537 N   0  0  0  0  0  0  0  0  0  0  0  0
   -1.3400   -0.0429   -1.1731 C   0  0  0  0  0  0  0  0  0  0  0  0
   -1.5350    0.7339   -2.1072 O   0  0  0  0  0  0  0  0  0  0  0  0
   -0.5386    0.3062    0.0900 C   0  0  0  0  0  0  0  0  0  0  0  0
   -0.5575    1.8406    0.3392 C   0  0  0  0  0  0  0  0  0  0  0  0
   -1.9445    2.4494    0.5420 C   0  0  0  0  0  0  0  0  0  0  0  0
    0.9517   -0.1012   -0.0881 C   0  0  0  0  0  0  0  0  0  0  0  0
    1.5710   -0.0683   -1.3529 C   0  0  0  0  0  0  0  0  0  0  0  0
    2.9149   -0.4187   -1.5091 C   0  0  0  0  0  0  0  0  0  0  0  0
    3.6737   -0.7916   -0.4048 C   0  0  0  0  0  0  0  0  0  0  0  0
    3.0934   -0.8010    0.8591 C   0  0  0  0  0  0  0  0  0  0  0  0
    1.7499   -0.4511    1.0186 C   0  0  0  0  0  0  0  0  0  0  0  0
  1  2  2  0
  2  3  1  0
  3  4  1  0
  4  5  2  0
  4  6  1  0
  6  7  1  0
  7  8  2  0
  7  9  1  0
  9 10  1  0
 10 11  1  0
  9 12  1  0
 12 13  2  0
 13 14  1  0
 14 15  2  0
 15 16  1  0
 16 17  2  0
  9  2  1  0
 17 12  1  0
M  END
>  <target>  (466) 
-2.322

$$$$

     RDKit          3D

  8  8  0  0  0  0  0  0  0  0999 V2000
    2.5214    1.7137   -0.0063 Cl  0  0  0  0  0  0  0  0  0  0  0  0
    1.0949    0.7372   -0.0028 C   0  0  0  0  0  0  0  0  0  0  0  0
   -0.1338    1.4075    0.0204 C   0  0  0  0  0  0  0  0  0  0  0  0
   -1.3308    0.6900    0.0246 C   0  0  0  0  0  0  0  0  0  0  0  0
   -1.3058   -0.7024    0.0057 C   0  0  0  0  0  0  0  0  0  0  0  0
   -0.0847   -1.3790   -0.0174 C   0  0  0  0  0  0  0  0  0  0  0  0
    1.1199   -0.6630   -0.0218 C   0  0  0  0  0  0  0  0  0  0  0  0
    2.8914   -1.7864   -0.0573 I   0  0  0  0  0  0  0  0  0  0  0  0
  1  2  1  0
  2  3  2  0
  3  4  1  0
  4  5  2  0
  5  6  1  0
  6  7  2  0
  7  8  1  0
  7  2  1  0
M  END
>  <target>  (467) 
-3.54

$$$$

     RDKit          3D

  9 10  0  0  0  0  0  0  0  0999 V2000
    1.8649   -0.2688   -0.0248 C   0  0  0  0  0  0  0  0  0  0  0  0
    1.4363    1.0601   -0.1058 C   0  0  0  0  0  0  0  0  0  0  0  0
    0.0754    1.3904   -0.0968 C   0  0  0  0  0  0  0  0  0  0  0  0
   -0.8195    0.3235   -0.0031 C   0  0  0  0  0  0  0  0  0  0  0  0
   -2.1826    0.2408    0.0341 N   0  0  0  0  0  0  0  0  0  0  0  0
   -2.6076   -1.0296    0.1308 N   0  0  0  0  0  0  0  0  0  0  0  0
   -1.5317   -1.8072    0.1590 N   0  0  0  0  0  0  0  0  0  0  0  0
   -0.4245   -1.0050    0.0786 C   0  0  0  0  0  0  0  0  0  0  0  0
    0.9412   -1.3188    0.0684 C   0  0  0  0  0  0  0  0  0  0  0  0
  1  2  2  0
  2  3  1  0
  3  4  2  0
  4  5  1  0
  5  6  1  0
  6  7  2  0
  7  8  1  0
  8  9  2  0
  8  4  1  0
  9  1  1  0
M  END
>  <target>  (468) 
-0.78

$$$$

     RDKit          3D

 16 17  0  0  0  0  0  0  0  0999 V2000
    4.1702    1.8387    1.0251 C   0  0  0  0  0  0  0  0  0  0  0  0
    3.4967    1.2608   -0.1046 N   0  0  0  0  0  0  0  0  0  0  0  0
    2.5782    0.2561    0.0448 C   0  0  0  0  0  0  0  0  0  0  0  0
    2.3604   -0.3294    1.0975 O   0  0  0  0  0  0  0  0  0  0  0  0
    1.9656    0.0230   -1.1745 O   0  0  0  0  0  0  0  0  0  0  0  0
    0.9152   -0.8823   -1.0805 C   0  0  0  0  0  0  0  0  0  0  0  0
    1.0954   -2.1954   -1.5142 C   0  0  0  0  0  0  0  0  0  0  0  0
    0.0237   -3.1004   -1.4526 C   0  0  0  0  0  0  0  0  0  0  0  0
   -1.2272   -2.6941   -0.9730 C   0  0  0  0  0  0  0  0  0  0  0  0
   -1.3811   -1.3803   -0.5589 C   0  0  0  0  0  0  0  0  0  0  0  0
   -2.5910   -0.6863   -0.0613 C   0  0  0  0  0  0  0  0  0  0  0  0
   -1.9596    0.6438    0.4113 C   0  0  0  0  0  0  0  0  0  0  0  0
   -2.8018    1.8416   -0.0302 C   0  0  0  0  0  0  0  0  0  0  0  0
   -1.7688    0.6733    1.9337 C   0  0  0  0  0  0  0  0  0  0  0  0
   -0.6469    0.7792   -0.2034 O   0  0  0  0  0  0  0  0  0  0  0  0
   -0.3266   -0.4861   -0.6211 C   0  0  0  0  0  0  0  0  0  0  0  0
  1  2  1  0
  2  3  1  0
  3  4  2  0
  3  5  1  0
  5  6  1  0
  6  7  2  0
  7  8  1  0
  8  9  2  0
  9 10  1  0
 10 11  1  0
 11 12  1  0
 12 13  1  0
 12 14  1  0
 12 15  1  0
 15 16  1  0
 16  6  1  0
 16 10  2  0
M  END
>  <target>  (469) 
-2.8

$$$$

     RDKit          3D

  9  9  0  0  0  0  0  0  0  0999 V2000
    2.5946   -0.6471    0.0845 C   0  0  0  0  0  0  0  0  0  0  0  0
    1.2654    0.0510    0.0393 C   0  0  0  0  0  0  0  0  0  0  0  0
    1.2056    1.4496    0.0300 C   0  0  0  0  0  0  0  0  0  0  0  0
   -0.0247    2.1024   -0.0119 C   0  0  0  0  0  0  0  0  0  0  0  0
   -1.2075    1.3640   -0.0450 C   0  0  0  0  0  0  0  0  0  0  0  0
   -1.1789   -0.0385   -0.0367 C   0  0  0  0  0  0  0  0  0  0  0  0
   -2.4749   -0.7957   -0.0732 C   0  0  0  0  0  0  0  0  0  0  0  0
    0.0686   -0.6808    0.0057 C   0  0  0  0  0  0  0  0  0  0  0  0
    0.1767   -2.0462    0.0163 O   0  0  0  0  0  0  0  0  0  0  0  0
  1  2  1  0
  2  3  2  0
  3  4  1  0
  4  5  2  0
  5  6  1  0
  6  7  1  0
  6  8  2  0
  8  9  1  0
  8  2  1  0
M  END
>  <target>  (470) 
-1.29

$$$$

     RDKit          3D

  6  5  0  0  0  0  0  0  0  0999 V2000
   -1.2894   -0.9170    0.5011 C   0  0  0  0  0  0  0  0  0  0  0  0
   -0.6050    0.1218   -0.3927 C   0  0  0  0  0  0  0  0  0  0  0  0
   -1.3031    1.4752   -0.2170 C   0  0  0  0  0  0  0  0  0  0  0  0
    0.9082    0.2545   -0.1205 C   0  0  0  0  0  0  0  0  0  0  0  0
    1.6838   -1.0262   -0.4079 C   0  0  0  0  0  0  0  0  0  0  0  0
    1.1286    0.6323    1.2364 O   0  0  0  0  0  0  0  0  0  0  0  0
  1  2  1  0
  2  3  1  0
  2  4  1  0
  4  5  1  0
  4  6  1  0
M  END
>  <target>  (471) 
-0.18

$$$$

     RDKit          3D

 14 15  0  0  0  0  0  0  0  0999 V2000
    1.6255    1.0200   -0.5810 C   0  0  0  0  0  0  0  0  0  0  0  0
    2.8078    1.5334   -0.0437 C   0  0  0  0  0  0  0  0  0  0  0  0
    3.6930    0.6915    0.6249 C   0  0  0  0  0  0  0  0  0  0  0  0
    3.3972   -0.6632    0.7564 C   0  0  0  0  0  0  0  0  0  0  0  0
    2.2143   -1.1775    0.2204 C   0  0  0  0  0  0  0  0  0  0  0  0
    1.3082   -0.3443   -0.4546 C   0  0  0  0  0  0  0  0  0  0  0  0
    0.0136   -0.8750   -1.0499 C   0  0  0  0  0  0  0  0  0  0  0  0
   -0.0538   -2.3021   -0.9744 O   0  0  0  0  0  0  0  0  0  0  0  0
   -1.2421   -0.2917   -0.4238 C   0  0  0  0  0  0  0  0  0  0  0  0
   -1.4886   -0.4209    0.9532 C   0  0  0  0  0  0  0  0  0  0  0  0
   -2.6527    0.1007    1.5189 C   0  0  0  0  0  0  0  0  0  0  0  0
   -3.5866    0.7522    0.7162 C   0  0  0  0  0  0  0  0  0  0  0  0
   -3.3586    0.8825   -0.6524 C   0  0  0  0  0  0  0  0  0  0  0  0
   -2.1944    0.3622   -1.2210 C   0  0  0  0  0  0  0  0  0  0  0  0
  1  2  2  0
  2  3  1  0
  3  4  2  0
  4  5  1  0
  5  6  2  0
  6  7  1  0
  7  8  1  0
  7  9  1  0
  9 10  2  0
 10 11  1  0
 11 12  2  0
 12 13  1  0
 13 14  2  0
  6  1  1  0
 14  9  1  0
M  END
>  <target>  (472) 
-2.55

$$$$

     RDKit          3D

 13 12  0  0  0  0  0  0  0  0999 V2000
   -5.7162    0.6290    0.6027 C   0  0  0  0  0  0  0  0  0  0  0  0
   -5.2803   -0.7969    0.3026 C   0  0  0  0  0  0  0  0  0  0  0  0
   -3.9807   -0.8825   -0.5004 C   0  0  0  0  0  0  0  0  0  0  0  0
   -2.7608   -0.3619    0.2629 C   0  0  0  0  0  0  0  0  0  0  0  0
   -1.4750   -0.5679   -0.5412 C   0  0  0  0  0  0  0  0  0  0  0  0
   -0.2541   -0.0453    0.2180 C   0  0  0  0  0  0  0  0  0  0  0  0
    1.0309   -0.2518   -0.5854 C   0  0  0  0  0  0  0  0  0  0  0  0
    2.2513    0.2707    0.1734 C   0  0  0  0  0  0  0  0  0  0  0  0
    3.5351    0.0648   -0.6287 C   0  0  0  0  0  0  0  0  0  0  0  0
    4.7501    0.5766    0.1092 C   0  0  0  0  0  0  0  0  0  0  0  0
    4.7441    1.0979    1.2150 O   0  0  0  0  0  0  0  0  0  0  0  0
    5.8622    0.3668   -0.6521 O   0  0  0  0  0  0  0  0  0  0  0  0
    7.0739    0.8167   -0.0446 C   0  0  0  0  0  0  0  0  0  0  0  0
  1  2  1  0
  2  3  1  0
  3  4  1  0
  4  5  1  0
  5  6  1  0
  6  7  1  0
  7  8  1  0
  8  9  1  0
  9 10  1  0
 10 11  2  0
 10 12  1  0
 12 13  1  0
M  END
>  <target>  (473) 
-4.69

$$$$

     RDKit          3D

 17 17  0  0  0  0  0  0  0  0999 V2000
   -3.3251   -1.8491   -0.0666 C   0  0  0  0  0  0  0  0  0  0  0  0
   -2.1301   -1.2081    0.3350 O   0  0  0  0  0  0  0  0  0  0  0  0
   -1.8071    0.2611   -0.2699 P   0  0  0  0  0  0  0  0  0  0  0  0
   -1.6147    0.3717   -2.1978 S   0  0  0  0  0  0  0  0  0  0  0  0
   -3.0082    1.1295    0.3849 O   0  0  0  0  0  0  0  0  0  0  0  0
   -2.9520    2.5383    0.2711 C   0  0  0  0  0  0  0  0  0  0  0  0
   -0.5472    0.7188    0.6445 O   0  0  0  0  0  0  0  0  0  0  0  0
    0.7196    0.2734    0.3827 C   0  0  0  0  0  0  0  0  0  0  0  0
    1.0480   -1.0648    0.6010 C   0  0  0  0  0  0  0  0  0  0  0  0
    2.3463   -1.5105    0.3423 C   0  0  0  0  0  0  0  0  0  0  0  0
    3.3110   -0.6048   -0.1242 C   0  0  0  0  0  0  0  0  0  0  0  0
    2.9889    0.7433   -0.3275 C   0  0  0  0  0  0  0  0  0  0  0  0
    1.6895    1.1777   -0.0658 C   0  0  0  0  0  0  0  0  0  0  0  0
    1.3052    2.8421   -0.3110 Cl  0  0  0  0  0  0  0  0  0  0  0  0
    4.6766   -1.0731   -0.3931 N   0  0  0  0  0  0  0  0  0  0  0  0
    4.9182   -2.2747   -0.2132 O   0  0  0  0  0  0  0  0  0  0  0  0
    5.5052   -0.2377   -0.7797 O   0  0  0  0  0  0  0  0  0  0  0  0
  1  2  1  0
  2  3  1  0
  3  4  2  0
  3  5  1  0
  5  6  1  0
  3  7  1  0
  7  8  1  0
  8  9  2  0
  9 10  1  0
 10 11  2  0
 11 12  1  0
 12 13  2  0
 13 14  1  0
 11 15  1  0
 15 16  1  0
 15 17  2  0
 13  8  1  0
M  CHG  2  15   1  16  -1
M  END
>  <target>  (474) 
-4.31

$$$$

     RDKit          3D

  5  4  0  0  0  0  0  0  0  0999 V2000
    1.4048   -0.1290    0.3109 C   0  0  0  0  0  0  0  0  0  0  0  0
    0.0448   -0.0211   -0.3847 C   0  0  0  0  0  0  0  0  0  0  0  0
   -0.5200    1.3871   -0.1817 C   0  0  0  0  0  0  0  0  0  0  0  0
   -0.9519   -1.0535    0.1415 C   0  0  0  0  0  0  0  0  0  0  0  0
   -0.5198   -2.8440   -0.4971 Br  0  0  0  0  0  0  0  0  0  0  0  0
  1  2  1  0
  2  3  1  0
  2  4  1  0
  4  5  1  0
M  END
>  <target>  (475) 
-2.43

$$$$

     RDKit          3D

  3  2  0  0  0  0  0  0  0  0999 V2000
   -0.7771    0.2150    0.0284 C   0  0  0  0  0  0  0  0  0  0  0  0
    0.6154   -0.3896   -0.0269 C   0  0  0  0  0  0  0  0  0  0  0  0
    2.1051    1.1347   -0.0428 I   0  0  0  0  0  0  0  0  0  0  0  0
  1  2  1  0
  2  3  1  0
M  END
>  <target>  (476) 
-1.6

$$$$

     RDKit          3D

 17 17  0  0  0  0  0  0  0  0999 V2000
    4.4629    0.4652    0.9772 C   0  0  0  0  0  0  0  0  0  0  0  0
    3.5197    0.2574   -0.1046 N   0  0  0  0  0  0  0  0  0  0  0  0
    3.8757    0.8095   -1.4003 C   0  0  0  0  0  0  0  0  0  0  0  0
    2.2071   -0.0848    0.2174 C   0  0  0  0  0  0  0  0  0  0  0  0
    1.8533   -0.3762    1.3568 O   0  0  0  0  0  0  0  0  0  0  0  0
    1.3779   -0.0865   -0.8918 O   0  0  0  0  0  0  0  0  0  0  0  0
    0.0396   -0.2851   -0.5433 C   0  0  0  0  0  0  0  0  0  0  0  0
   -0.6855    0.8431   -0.4484 N   0  0  0  0  0  0  0  0  0  0  0  0
   -1.9838    0.7108   -0.1576 C   0  0  0  0  0  0  0  0  0  0  0  0
   -2.5594   -0.4924    0.0101 N   0  0  0  0  0  0  0  0  0  0  0  0
   -1.8082   -1.6095   -0.1198 C   0  0  0  0  0  0  0  0  0  0  0  0
   -2.5341   -2.9058    0.0922 C   0  0  0  0  0  0  0  0  0  0  0  0
   -0.4649   -1.5667   -0.4389 C   0  0  0  0  0  0  0  0  0  0  0  0
    0.3846   -2.7861   -0.5819 C   0  0  0  0  0  0  0  0  0  0  0  0
   -2.7753    1.8586   -0.0527 N   0  0  0  0  0  0  0  0  0  0  0  0
   -4.0100    1.6627    0.6897 C   0  0  0  0  0  0  0  0  0  0  0  0
   -2.0253    3.0707    0.2352 C   0  0  0  0  0  0  0  0  0  0  0  0
  1  2  1  0
  2  3  1  0
  2  4  1  0
  4  5  2  0
  4  6  1  0
  6  7  1  0
  7  8  2  0
  8  9  1  0
  9 10  2  0
 10 11  1  0
 11 12  1  0
 11 13  2  0
 13 14  1  0
  9 15  1  0
 15 16  1  0
 15 17  1  0
 13  7  1  0
M  END
>  <target>  (477) 
-1.95

$$$$

     RDKit          3D

  7  6  0  0  0  0  0  0  0  0999 V2000
   -3.1769    0.0498    0.4684 C   0  0  0  0  0  0  0  0  0  0  0  0
   -1.9203   -0.3793   -0.2721 C   0  0  0  0  0  0  0  0  0  0  0  0
   -0.6656    0.2268    0.3560 C   0  0  0  0  0  0  0  0  0  0  0  0
    0.5962   -0.2074   -0.3918 C   0  0  0  0  0  0  0  0  0  0  0  0
    1.8521    0.3988    0.2362 C   0  0  0  0  0  0  0  0  0  0  0  0
    3.1005   -0.0369   -0.5118 C   0  0  0  0  0  0  0  0  0  0  0  0
    4.6748    0.7539    0.3164 Br  0  0  0  0  0  0  0  0  0  0  0  0
  1  2  1  0
  2  3  1  0
  3  4  1  0
  4  5  1  0
  5  6  1  0
  6  7  1  0
M  END
>  <target>  (478) 
-3.81

$$$$

     RDKit          3D

  6  5  0  0  0  0  0  0  0  0999 V2000
    2.7520    0.0747   -0.6514 C   0  0  0  0  0  0  0  0  0  0  0  0
    1.5116    0.1585    0.2255 C   0  0  0  0  0  0  0  0  0  0  0  0
    0.2562   -0.2615   -0.5429 C   0  0  0  0  0  0  0  0  0  0  0  0
   -1.0098   -0.3141    0.3323 C   0  0  0  0  0  0  0  0  0  0  0  0
   -2.1768   -0.8846   -0.4775 C   0  0  0  0  0  0  0  0  0  0  0  0
   -1.3917    1.0575    0.8907 C   0  0  0  0  0  0  0  0  0  0  0  0
  1  2  1  0
  2  3  1  0
  3  4  1  0
  4  5  1  0
  4  6  1  0
M  END
>  <target>  (479) 
-3.74

$$$$

     RDKit          3D

 27 28  0  0  0  0  0  0  0  0999 V2000
    5.5488    2.4606    0.4375 C   0  0  0  0  0  0  0  0  0  0  0  0
    4.5210    1.5409   -0.1414 C   0  0  0  0  0  0  0  0  0  0  0  0
    3.8292    1.8761   -1.3063 C   0  0  0  0  0  0  0  0  0  0  0  0
    4.1106    3.0257   -1.9369 F   0  0  0  0  0  0  0  0  0  0  0  0
    2.8455    1.0342   -1.8286 C   0  0  0  0  0  0  0  0  0  0  0  0
    2.2048    1.3915   -2.9511 F   0  0  0  0  0  0  0  0  0  0  0  0
    2.5198   -0.1679   -1.2006 C   0  0  0  0  0  0  0  0  0  0  0  0
    1.4344   -1.0505   -1.7333 C   0  0  0  0  0  0  0  0  0  0  0  0
    0.2326   -0.6976   -1.0493 O   0  0  0  0  0  0  0  0  0  0  0  0
   -0.8527   -1.4031   -1.4501 C   0  0  0  0  0  0  0  0  0  0  0  0
   -0.8731   -2.2672   -2.3129 O   0  0  0  0  0  0  0  0  0  0  0  0
   -2.0772   -0.9816   -0.7307 C   0  0  0  0  0  0  0  0  0  0  0  0
   -2.0437   -0.6794    0.7551 C   0  0  0  0  0  0  0  0  0  0  0  0
   -2.7807    0.4870    1.2666 C   0  0  0  0  0  0  0  0  0  0  0  0
   -2.4570    1.7883    1.1354 C   0  0  0  0  0  0  0  0  0  0  0  0
   -1.0246    2.2635    0.2725 Cl  0  0  0  0  0  0  0  0  0  0  0  0
   -3.2554    2.9264    1.7019 C   0  0  0  0  0  0  0  0  0  0  0  0
   -4.3613    2.5012    2.3714 F   0  0  0  0  0  0  0  0  0  0  0  0
   -2.5366    3.6685    2.5835 F   0  0  0  0  0  0  0  0  0  0  0  0
   -3.6961    3.7733    0.7358 F   0  0  0  0  0  0  0  0  0  0  0  0
   -2.7786   -1.9112    0.2492 C   0  0  0  0  0  0  0  0  0  0  0  0
   -4.2870   -1.9522    0.1858 C   0  0  0  0  0  0  0  0  0  0  0  0
   -2.1628   -3.2532    0.5715 C   0  0  0  0  0  0  0  0  0  0  0  0
    3.1939   -0.4922   -0.0230 C   0  0  0  0  0  0  0  0  0  0  0  0
    2.8914   -1.6283    0.6223 F   0  0  0  0  0  0  0  0  0  0  0  0
    4.1772    0.3498    0.4996 C   0  0  0  0  0  0  0  0  0  0  0  0
    4.7975    0.0057    1.6377 F   0  0  0  0  0  0  0  0  0  0  0  0
  1  2  1  0
  2  3  2  0
  3  4  1  0
  3  5  1  0
  5  6  1  0
  5  7  2  0
  7  8  1  0
  8  9  1  0
  9 10  1  0
 10 11  2  0
 10 12  1  0
 12 13  1  0
 13 14  1  0
 14 15  2  3
 15 16  1  0
 15 17  1  0
 17 18  1  0
 17 19  1  0
 17 20  1  0
 13 21  1  0
 21 22  1  0
 21 23  1  0
  7 24  1  0
 24 25  1  0
 24 26  2  0
 26 27  1  0
 26  2  1  0
 21 12  1  0
M  END
>  <target>  (480) 
-7.321000000000001

$$$$

     RDKit          3D

 19 19  0  0  0  0  0  0  0  0999 V2000
    0.5178    2.8223   -1.1158 C   0  0  0  0  0  0  0  0  0  0  0  0
   -0.3339    2.3452    0.0520 C   0  0  0  0  0  0  0  0  0  0  0  0
   -1.3605    1.3117   -0.3573 C   0  0  0  0  0  0  0  0  0  0  0  0
   -2.5068    1.7700   -1.0306 C   0  0  0  0  0  0  0  0  0  0  0  0
   -3.5119    0.8897   -1.4165 C   0  0  0  0  0  0  0  0  0  0  0  0
   -3.3922   -0.4655   -1.1295 C   0  0  0  0  0  0  0  0  0  0  0  0
   -2.2685   -0.9636   -0.4488 C   0  0  0  0  0  0  0  0  0  0  0  0
   -2.2152   -2.4502   -0.2175 C   0  0  0  0  0  0  0  0  0  0  0  0
   -1.2380   -0.0686   -0.0751 C   0  0  0  0  0  0  0  0  0  0  0  0
   -0.0758   -0.5538    0.5896 N   0  0  0  0  0  0  0  0  0  0  0  0
    1.1122   -0.8086   -0.2662 C   0  0  0  0  0  0  0  0  0  0  0  0
    1.3127   -2.3011   -0.5587 C   0  0  0  0  0  0  0  0  0  0  0  0
    2.4148   -0.2023    0.3035 C   0  0  0  0  0  0  0  0  0  0  0  0
    3.3701   -0.0536   -0.7559 O   0  0  0  0  0  0  0  0  0  0  0  0
    4.5944    0.4888   -0.2779 C   0  0  0  0  0  0  0  0  0  0  0  0
   -0.0756   -0.9015    1.9414 C   0  0  0  0  0  0  0  0  0  0  0  0
    0.8935   -1.4544    2.4724 O   0  0  0  0  0  0  0  0  0  0  0  0
   -1.2879   -0.5419    2.7891 C   0  0  0  0  0  0  0  0  0  0  0  0
   -1.0031    1.0345    3.5573 Cl  0  0  0  0  0  0  0  0  0  0  0  0
  1  2  1  0
  2  3  1  0
  3  4  2  0
  4  5  1  0
  5  6  2  0
  6  7  1  0
  7  8  1  0
  7  9  2  0
  9 10  1  0
 10 11  1  0
 11 12  1  0
 11 13  1  0
 13 14  1  0
 14 15  1  0
 10 16  1  0
 16 17  2  0
 16 18  1  0
 18 19  1  0
  9  3  1  0
M  END
>  <target>  (481) 
-2.73

$$$$

     RDKit          3D

 11 11  0  0  0  0  0  0  0  0999 V2000
    3.9300    0.7197    0.1084 O   0  0  0  0  0  0  0  0  0  0  0  0
    2.7910   -0.0463   -0.1736 N   0  0  0  0  0  0  0  0  0  0  0  0
    1.7387    0.6044    0.2114 C   0  0  0  0  0  0  0  0  0  0  0  0
    0.4274    0.0471    0.0409 C   0  0  0  0  0  0  0  0  0  0  0  0
   -0.0110   -1.1515   -0.4971 C   0  0  0  0  0  0  0  0  0  0  0  0
   -1.4258   -1.1574   -0.3981 C   0  0  0  0  0  0  0  0  0  0  0  0
   -1.7519    0.0390    0.1940 C   0  0  0  0  0  0  0  0  0  0  0  0
   -0.6464    0.7827    0.4678 O   0  0  0  0  0  0  0  0  0  0  0  0
   -3.0112    0.6091    0.5556 N   0  0  0  0  0  0  0  0  0  0  0  0
   -4.0136   -0.0732    0.3035 O   0  0  0  0  0  0  0  0  0  0  0  0
   -3.0089    1.7268    1.0866 O   0  0  0  0  0  0  0  0  0  0  0  0
  1  2  1  0
  2  3  2  3
  3  4  1  0
  4  5  2  0
  5  6  1  0
  6  7  2  0
  7  8  1  0
  7  9  1  0
  9 10  1  0
  9 11  2  0
  8  4  1  0
M  CHG  2   9   1  10  -1
M  END
>  <target>  (482) 
-2.19

$$$$

     RDKit          3D

 35 37  0  0  0  0  0  0  0  0999 V2000
    3.2782   -2.4923   -2.4615 C   0  0  0  0  0  0  0  0  0  0  0  0
    3.6379   -3.1220   -1.1115 C   0  0  0  0  0  0  0  0  0  0  0  0
    5.1188   -2.8801   -0.8024 C   0  0  0  0  0  0  0  0  0  0  0  0
    2.7394   -2.6587    0.0604 C   0  0  0  0  0  0  0  0  0  0  0  0
    2.8322   -1.1871    0.2601 N   0  0  0  0  0  0  0  0  0  0  0  0
    2.0349   -0.6177    1.2802 C   0  0  0  0  0  0  0  0  0  0  0  0
    1.9354   -1.1946    2.5518 C   0  0  0  0  0  0  0  0  0  0  0  0
    1.0926   -0.6466    3.5255 C   0  0  0  0  0  0  0  0  0  0  0  0
    0.3369    0.5021    3.2538 C   0  0  0  0  0  0  0  0  0  0  0  0
    0.4892    1.1325    2.0121 C   0  0  0  0  0  0  0  0  0  0  0  0
    1.3376    0.5868    1.0473 C   0  0  0  0  0  0  0  0  0  0  0  0
    1.4634    1.3885   -0.4816 Cl  0  0  0  0  0  0  0  0  0  0  0  0
   -0.5955    1.0785    4.2863 C   0  0  0  0  0  0  0  0  0  0  0  0
   -1.0458    0.1558    5.1818 F   0  0  0  0  0  0  0  0  0  0  0  0
   -1.7098    1.6446    3.7448 F   0  0  0  0  0  0  0  0  0  0  0  0
   -0.0031    2.0564    5.0262 F   0  0  0  0  0  0  0  0  0  0  0  0
    1.2992   -3.1704   -0.1429 C   0  0  0  0  0  0  0  0  0  0  0  0
    0.9423   -4.3144    0.1131 O   0  0  0  0  0  0  0  0  0  0  0  0
    0.4763   -2.2085   -0.6395 O   0  0  0  0  0  0  0  0  0  0  0  0
   -0.9184   -2.5610   -0.6784 C   0  0  0  0  0  0  0  0  0  0  0  0
   -1.2566   -3.2313   -1.9548 C   0  0  0  0  0  0  0  0  0  0  0  0
   -1.5053   -3.7601   -2.9601 N   0  0  0  0  0  0  0  0  0  0  0  0
   -1.6884   -1.2680   -0.4450 C   0  0  0  0  0  0  0  0  0  0  0  0
   -2.2438   -1.0056    0.8183 C   0  0  0  0  0  0  0  0  0  0  0  0
   -2.9307    0.1850    1.0620 C   0  0  0  0  0  0  0  0  0  0  0  0
   -3.0690    1.1361    0.0520 C   0  0  0  0  0  0  0  0  0  0  0  0
   -2.4999    0.9076   -1.2016 C   0  0  0  0  0  0  0  0  0  0  0  0
   -2.6076    1.7688   -2.2733 O   0  0  0  0  0  0  0  0  0  0  0  0
   -2.7501    3.1110   -2.0147 C   0  0  0  0  0  0  0  0  0  0  0  0
   -1.7644    3.8380   -1.3447 C   0  0  0  0  0  0  0  0  0  0  0  0
   -1.9333    5.2083   -1.1415 C   0  0  0  0  0  0  0  0  0  0  0  0
   -3.0758    5.8500   -1.6223 C   0  0  0  0  0  0  0  0  0  0  0  0
   -4.0476    5.1243   -2.3132 C   0  0  0  0  0  0  0  0  0  0  0  0
   -3.8812    3.7538   -2.5174 C   0  0  0  0  0  0  0  0  0  0  0  0
   -1.8197   -0.2904   -1.4487 C   0  0  0  0  0  0  0  0  0  0  0  0
  1  2  1  0
  2  3  1  0
  2  4  1  0
  4  5  1  0
  5  6  1  0
  6  7  2  0
  7  8  1  0
  8  9  2  0
  9 10  1  0
 10 11  2  0
 11 12  1  0
  9 13  1  0
 13 14  1  0
 13 15  1  0
 13 16  1  0
  4 17  1  0
 17 18  2  0
 17 19  1  0
 19 20  1  0
 20 21  1  0
 21 22  3  0
 20 23  1  0
 23 24  2  0
 24 25  1  0
 25 26  2  0
 26 27  1  0
 27 28  1  0
 28 29  1  0
 29 30  2  0
 30 31  1  0
 31 32  2  0
 32 33  1  0
 33 34  2  0
 27 35  2  0
 11  6  1  0
 35 23  1  0
 34 29  1  0
M  END
>  <target>  (483) 
-8.003

$$$$

     RDKit          3D

  6  6  0  0  0  0  0  0  0  0999 V2000
    1.8976   -0.3851    0.1261 N   0  0  0  0  0  0  0  0  0  0  0  0
    0.5842   -0.1961    0.0482 C   0  0  0  0  0  0  0  0  0  0  0  0
    0.0354    0.8606    0.7050 N   0  0  0  0  0  0  0  0  0  0  0  0
   -1.2409    0.7551    0.4188 C   0  0  0  0  0  0  0  0  0  0  0  0
   -1.4314   -0.3185   -0.3905 N   0  0  0  0  0  0  0  0  0  0  0  0
   -0.2691   -0.9319   -0.6572 N   0  0  0  0  0  0  0  0  0  0  0  0
  1  2  1  0
  2  3  1  0
  3  4  2  0
  4  5  1  0
  5  6  1  0
  6  2  2  0
M  END
>  <target>  (484) 
0.522

$$$$

     RDKit          3D

  4  3  0  0  0  0  0  0  0  0999 V2000
   -1.5261   -1.0321   -0.5200 Br  0  0  0  0  0  0  0  0  0  0  0  0
   -0.0053   -0.0008    0.1150 C   0  0  0  0  0  0  0  0  0  0  0  0
   -0.1025    1.8620   -0.4325 Br  0  0  0  0  0  0  0  0  0  0  0  0
    1.6899   -0.8201   -0.3691 Br  0  0  0  0  0  0  0  0  0  0  0  0
  1  2  1  0
  2  3  1  0
  2  4  1  0
M  END
>  <target>  (485) 
-1.91

$$$$

     RDKit          3D

 12 11  0  0  0  0  0  0  0  0999 V2000
   -1.9890   -1.7839   -0.3030 C   0  0  0  0  0  0  0  0  0  0  0  0
   -1.3490   -0.6085   -0.7601 O   0  0  0  0  0  0  0  0  0  0  0  0
   -0.2954    0.1012    0.2405 P   0  0  0  0  0  0  0  0  0  0  0  0
   -0.7943    0.2131    1.6456 O   0  0  0  0  0  0  0  0  0  0  0  0
   -0.0812    1.5255   -0.5002 O   0  0  0  0  0  0  0  0  0  0  0  0
   -1.1184    2.4781   -0.3555 C   0  0  0  0  0  0  0  0  0  0  0  0
    1.2619   -0.7462   -0.0512 C   0  0  0  0  0  0  0  0  0  0  0  0
    1.6846   -0.4269   -1.4069 O   0  0  0  0  0  0  0  0  0  0  0  0
    2.3306   -0.4189    1.0001 C   0  0  0  0  0  0  0  0  0  0  0  0
    3.8912   -1.2211    0.5478 Cl  0  0  0  0  0  0  0  0  0  0  0  0
    2.6601    1.3349    1.1254 Cl  0  0  0  0  0  0  0  0  0  0  0  0
    1.8941   -1.0651    2.6139 Cl  0  0  0  0  0  0  0  0  0  0  0  0
  1  2  1  0
  2  3  1  0
  3  4  2  0
  3  5  1  0
  5  6  1  0
  3  7  1  0
  7  8  1  0
  7  9  1  0
  9 10  1  0
  9 11  1  0
  9 12  1  0
M  END
>  <target>  (486) 
-0.22

$$$$

     RDKit          3D

 21 22  0  0  0  0  0  0  0  0999 V2000
   -3.3069    3.5193    1.4281 C   0  0  0  0  0  0  0  0  0  0  0  0
   -2.8972    2.4383    0.4490 C   0  0  0  0  0  0  0  0  0  0  0  0
   -2.6441    1.2462    1.1748 O   0  0  0  0  0  0  0  0  0  0  0  0
   -1.7527    0.0759    0.4856 P   0  0  0  0  0  0  0  0  0  0  0  0
   -2.5213   -0.6284   -1.1642 S   0  0  0  0  0  0  0  0  0  0  0  0
   -1.7617   -1.0197    1.6874 O   0  0  0  0  0  0  0  0  0  0  0  0
   -2.9987   -1.4050    2.2667 C   0  0  0  0  0  0  0  0  0  0  0  0
   -2.7574   -2.6086    3.1549 C   0  0  0  0  0  0  0  0  0  0  0  0
    0.2277    0.7645    0.4128 S   0  0  0  0  0  0  0  0  0  0  0  0
    1.1285   -0.7969    0.3219 C   0  0  0  0  0  0  0  0  0  0  0  0
    2.4429   -0.6080   -0.2180 N   0  0  0  0  0  0  0  0  0  0  0  0
    3.6078   -0.5378    0.5150 C   0  0  0  0  0  0  0  0  0  0  0  0
    3.7038   -0.6498    1.7293 O   0  0  0  0  0  0  0  0  0  0  0  0
    4.7142   -0.3282   -0.3222 O   0  0  0  0  0  0  0  0  0  0  0  0
    4.1358   -0.2791   -1.5809 C   0  0  0  0  0  0  0  0  0  0  0  0
    4.8145   -0.0863   -2.7649 C   0  0  0  0  0  0  0  0  0  0  0  0
    4.0533   -0.0676   -3.9353 C   0  0  0  0  0  0  0  0  0  0  0  0
    4.8339    0.1703   -5.4506 Cl  0  0  0  0  0  0  0  0  0  0  0  0
    2.6554   -0.2398   -3.9013 C   0  0  0  0  0  0  0  0  0  0  0  0
    1.9909   -0.4342   -2.6858 C   0  0  0  0  0  0  0  0  0  0  0  0
    2.7653   -0.4468   -1.5450 C   0  0  0  0  0  0  0  0  0  0  0  0
  1  2  1  0
  2  3  1  0
  3  4  1  0
  4  5  2  0
  4  6  1  0
  6  7  1  0
  7  8  1  0
  4  9  1  0
  9 10  1  0
 10 11  1  0
 11 12  1  0
 12 13  2  0
 12 14  1  0
 14 15  1  0
 15 16  2  0
 16 17  1  0
 17 18  1  0
 17 19  2  0
 19 20  1  0
 20 21  2  0
 21 11  1  0
 21 15  1  0
M  END
>  <target>  (487) 
-5.233

$$$$

     RDKit          3D

  8  8  0  0  0  0  0  0  0  0999 V2000
   -2.7373    0.2846    0.7078 O   0  0  0  0  0  0  0  0  0  0  0  0
   -2.0184    0.2718   -0.5182 C   0  0  0  0  0  0  0  0  0  0  0  0
   -0.5469    0.0813   -0.2685 C   0  0  0  0  0  0  0  0  0  0  0  0
   -0.0001   -1.2071   -0.1950 C   0  0  0  0  0  0  0  0  0  0  0  0
    1.3591   -1.3840    0.0683 C   0  0  0  0  0  0  0  0  0  0  0  0
    2.1810   -0.2764    0.2691 C   0  0  0  0  0  0  0  0  0  0  0  0
    1.6447    1.0087    0.2108 C   0  0  0  0  0  0  0  0  0  0  0  0
    0.2858    1.1877   -0.0523 C   0  0  0  0  0  0  0  0  0  0  0  0
  1  2  1  0
  2  3  1  0
  3  4  2  0
  4  5  1  0
  5  6  2  0
  6  7  1  0
  7  8  2  0
  8  3  1  0
M  END
>  <target>  (488) 
-0.4

$$$$

     RDKit          3D

 22 25  0  0  0  0  0  0  0  0999 V2000
    1.1245   -0.4525    3.1184 O   0  0  0  0  0  0  0  0  0  0  0  0
    1.5622   -0.3019    1.9818 C   0  0  0  0  0  0  0  0  0  0  0  0
    0.6687    0.0347    0.8349 C   0  0  0  0  0  0  0  0  0  0  0  0
   -0.8091    0.1419    1.2092 C   0  0  0  0  0  0  0  0  0  0  0  0
   -1.1625    1.6340    1.3824 C   0  0  0  0  0  0  0  0  0  0  0  0
   -2.6638    1.8304    1.5386 C   0  0  0  0  0  0  0  0  0  0  0  0
   -3.3799    1.3735    0.2730 C   0  0  0  0  0  0  0  0  0  0  0  0
   -2.9764   -0.0174   -0.1496 C   0  0  0  0  0  0  0  0  0  0  0  0
   -3.8215   -0.7269   -1.0172 C   0  0  0  0  0  0  0  0  0  0  0  0
   -3.5001   -2.0198   -1.4254 C   0  0  0  0  0  0  0  0  0  0  0  0
   -2.3334   -2.6209   -0.9672 C   0  0  0  0  0  0  0  0  0  0  0  0
   -1.4779   -1.9225   -0.1158 C   0  0  0  0  0  0  0  0  0  0  0  0
   -1.7676   -0.6027    0.2780 C   0  0  0  0  0  0  0  0  0  0  0  0
    1.2031    0.2460   -0.3857 C   0  0  0  0  0  0  0  0  0  0  0  0
    0.4842    0.5955   -1.5104 O   0  0  0  0  0  0  0  0  0  0  0  0
    2.6452    0.1298   -0.6086 C   0  0  0  0  0  0  0  0  0  0  0  0
    3.2511    0.3439   -1.8534 C   0  0  0  0  0  0  0  0  0  0  0  0
    4.6356    0.2095   -2.0065 C   0  0  0  0  0  0  0  0  0  0  0  0
    5.4306   -0.1419   -0.9161 C   0  0  0  0  0  0  0  0  0  0  0  0
    4.8415   -0.3579    0.3268 C   0  0  0  0  0  0  0  0  0  0  0  0
    3.4599   -0.2182    0.4604 C   0  0  0  0  0  0  0  0  0  0  0  0
    2.9186   -0.4408    1.7335 O   0  0  0  0  0  0  0  0  0  0  0  0
  1  2  2  0
  2  3  1  0
  3  4  1  0
  4  5  1  0
  5  6  1  0
  6  7  1  0
  7  8  1  0
  8  9  2  0
  9 10  1  0
 10 11  2  0
 11 12  1  0
 12 13  2  0
  3 14  2  0
 14 15  1  0
 14 16  1  0
 16 17  2  0
 17 18  1  0
 18 19  2  0
 19 20  1  0
 20 21  2  0
 21 22  1  0
 21 16  1  0
 22  2  1  0
 13  4  1  0
 13  8  1  0
M  END
>  <target>  (489) 
-2.84

$$$$

     RDKit          3D

  8  8  0  0  0  0  0  0  0  0999 V2000
   -2.5123   -0.4367   -0.1000 O   0  0  0  0  0  0  0  0  0  0  0  0
   -1.1682   -0.2158   -0.0480 C   0  0  0  0  0  0  0  0  0  0  0  0
   -0.6499    1.0668    0.1097 C   0  0  0  0  0  0  0  0  0  0  0  0
    0.7346    1.2456    0.1577 C   0  0  0  0  0  0  0  0  0  0  0  0
    1.5807    0.1411    0.0476 C   0  0  0  0  0  0  0  0  0  0  0  0
    3.4542    0.3861    0.1129 Br  0  0  0  0  0  0  0  0  0  0  0  0
    1.0560   -1.1414   -0.1102 C   0  0  0  0  0  0  0  0  0  0  0  0
   -0.3273   -1.3187   -0.1580 C   0  0  0  0  0  0  0  0  0  0  0  0
  1  2  1  0
  2  3  2  0
  3  4  1  0
  4  5  2  0
  5  6  1  0
  5  7  1  0
  7  8  2  0
  8  2  1  0
M  END
>  <target>  (490) 
-1.09

$$$$

     RDKit          3D

  4  3  0  0  0  0  0  0  0  0999 V2000
    1.2404   -0.2808    0.2314 C   0  0  0  0  0  0  0  0  0  0  0  0
    0.0407    0.3590   -0.4453 C   0  0  0  0  0  0  0  0  0  0  0  0
   -1.2749   -0.2040    0.0634 C   0  0  0  0  0  0  0  0  0  0  0  0
    0.0770    2.2860   -0.1083 Br  0  0  0  0  0  0  0  0  0  0  0  0
  1  2  1  0
  2  3  1  0
  2  4  1  0
M  END
>  <target>  (491) 
-1.59

$$$$

     RDKit          3D

  8  7  0  0  0  0  0  0  0  0999 V2000
    2.2047    0.5241    0.8494 C   0  0  0  0  0  0  0  0  0  0  0  0
    1.3356    0.3931   -0.4055 C   0  0  0  0  0  0  0  0  0  0  0  0
    2.2380    0.0428   -1.5943 C   0  0  0  0  0  0  0  0  0  0  0  0
    0.2397   -0.6853   -0.2362 C   0  0  0  0  0  0  0  0  0  0  0  0
   -1.1666   -0.1962    0.2165 C   0  0  0  0  0  0  0  0  0  0  0  0
   -2.0585   -1.4379    0.4242 C   0  0  0  0  0  0  0  0  0  0  0  0
   -1.1173    0.5884    1.5345 C   0  0  0  0  0  0  0  0  0  0  0  0
   -1.8137    0.6817   -0.8704 C   0  0  0  0  0  0  0  0  0  0  0  0
  1  2  1  0
  2  3  1  0
  2  4  1  0
  4  5  1  0
  5  6  1  0
  5  7  1  0
  5  8  1  0
M  END
>  <target>  (492) 
-4.74

$$$$

     RDKit          3D

 15 15  0  0  0  0  0  0  0  0999 V2000
   -0.5197    3.4135    1.0515 O   0  0  0  0  0  0  0  0  0  0  0  0
   -1.2434    2.5083    0.6184 N   0  0  0  0  0  0  0  0  0  0  0  0
   -2.4628    2.6030    0.4319 O   0  0  0  0  0  0  0  0  0  0  0  0
   -0.6055    1.2215    0.3012 C   0  0  0  0  0  0  0  0  0  0  0  0
    0.7750    1.0672    0.4965 C   0  0  0  0  0  0  0  0  0  0  0  0
    1.3734   -0.1642    0.1907 C   0  0  0  0  0  0  0  0  0  0  0  0
    0.6112   -1.2329   -0.3040 C   0  0  0  0  0  0  0  0  0  0  0  0
   -0.7678   -1.0573   -0.4919 C   0  0  0  0  0  0  0  0  0  0  0  0
   -1.3862    0.1657   -0.1925 C   0  0  0  0  0  0  0  0  0  0  0  0
   -1.5767   -2.1711   -1.0101 N   0  0  0  0  0  0  0  0  0  0  0  0
   -2.7889   -1.9751   -1.1614 O   0  0  0  0  0  0  0  0  0  0  0  0
   -0.9930   -3.2327   -1.2615 O   0  0  0  0  0  0  0  0  0  0  0  0
    2.8201   -0.3372    0.3917 N   0  0  0  0  0  0  0  0  0  0  0  0
    3.3086   -1.4384    0.1099 O   0  0  0  0  0  0  0  0  0  0  0  0
    3.4559    0.6297    0.8296 O   0  0  0  0  0  0  0  0  0  0  0  0
  1  2  1  0
  2  3  2  0
  2  4  1  0
  4  5  2  0
  5  6  1  0
  6  7  2  0
  7  8  1  0
  8  9  2  0
  8 10  1  0
 10 11  1  0
 10 12  2  0
  6 13  1  0
 13 14  1  0
 13 15  2  0
  9  4  1  0
M  CHG  6   1  -1   2   1  10   1  11  -1  13   1  14  -1
M  END
>  <target>  (493) 
-2.89

$$$$

     RDKit          3D

 22 24  0  0  0  0  0  0  0  0999 V2000
   -3.3298   -1.3848    1.3648 C   0  0  0  0  0  0  0  0  0  0  0  0
   -2.2847   -1.2589    0.3569 N   0  0  0  0  0  0  0  0  0  0  0  0
   -1.9778   -2.4162   -0.3710 C   0  0  0  0  0  0  0  0  0  0  0  0
   -2.4995   -3.5075   -0.1236 O   0  0  0  0  0  0  0  0  0  0  0  0
   -1.0302   -2.2647   -1.5528 C   0  0  0  0  0  0  0  0  0  0  0  0
    0.3166   -1.9996   -1.0590 N   0  0  0  0  0  0  0  0  0  0  0  0
    0.5507   -0.8514   -0.5203 C   0  0  0  0  0  0  0  0  0  0  0  0
    1.9216   -0.6218    0.0371 C   0  0  0  0  0  0  0  0  0  0  0  0
    3.0242   -1.1803   -0.6200 C   0  0  0  0  0  0  0  0  0  0  0  0
    4.3120   -0.9777   -0.1219 C   0  0  0  0  0  0  0  0  0  0  0  0
    4.5009   -0.2273    1.0382 C   0  0  0  0  0  0  0  0  0  0  0  0
    3.4036    0.3141    1.7080 C   0  0  0  0  0  0  0  0  0  0  0  0
    2.1130    0.1141    1.2136 C   0  0  0  0  0  0  0  0  0  0  0  0
   -0.4537    0.2493   -0.4310 C   0  0  0  0  0  0  0  0  0  0  0  0
   -0.0195    1.5394   -0.7942 C   0  0  0  0  0  0  0  0  0  0  0  0
   -0.8722    2.6339   -0.6297 C   0  0  0  0  0  0  0  0  0  0  0  0
   -2.1528    2.4538   -0.1060 C   0  0  0  0  0  0  0  0  0  0  0  0
   -2.5865    1.1661    0.2297 C   0  0  0  0  0  0  0  0  0  0  0  0
   -1.7628    0.0367    0.0494 C   0  0  0  0  0  0  0  0  0  0  0  0
   -0.4157    3.9803   -0.9977 N   0  0  0  0  0  0  0  0  0  0  0  0
    0.7316    4.0943   -1.4493 O   0  0  0  0  0  0  0  0  0  0  0  0
   -1.2055    4.9198   -0.8311 O   0  0  0  0  0  0  0  0  0  0  0  0
  1  2  1  0
  2  3  1  0
  3  4  2  0
  3  5  1  0
  5  6  1  0
  6  7  2  0
  7  8  1  0
  8  9  2  0
  9 10  1  0
 10 11  2  0
 11 12  1  0
 12 13  2  0
  7 14  1  0
 14 15  2  0
 15 16  1  0
 16 17  2  0
 17 18  1  0
 18 19  2  0
 16 20  1  0
 20 21  1  0
 20 22  2  0
 13  8  1  0
 19  2  1  0
 19 14  1  0
M  CHG  2  20   1  21  -1
M  END
>  <target>  (494) 
-3.7960000000000003

$$$$

     RDKit          3D

  3  2  0  0  0  0  0  0  0  0999 V2000
   -1.2568   -0.0598    0.2272 C   0  0  0  0  0  0  0  0  0  0  0  0
    0.0392   -0.3471   -0.5117 C   0  0  0  0  0  0  0  0  0  0  0  0
    1.2272    0.3218    0.1589 C   0  0  0  0  0  0  0  0  0  0  0  0
  1  2  1  0
  2  3  1  0
M  END
>  <target>  (495) 
-1.94

$$$$

     RDKit          3D

 15 16  0  0  0  0  0  0  0  0999 V2000
    3.4610   -2.4550   -0.1590 N   0  0  0  0  0  0  0  0  0  0  0  0
    2.7017   -1.2593   -0.0983 C   0  0  0  0  0  0  0  0  0  0  0  0
    1.3165   -1.2848   -0.1974 C   0  0  0  0  0  0  0  0  0  0  0  0
    0.6056   -0.0932   -0.1210 C   0  0  0  0  0  0  0  0  0  0  0  0
    1.2394    1.0892    0.0339 N   0  0  0  0  0  0  0  0  0  0  0  0
    2.5889    1.1280    0.1673 C   0  0  0  0  0  0  0  0  0  0  0  0
    3.2133    2.3671    0.3437 N   0  0  0  0  0  0  0  0  0  0  0  0
    3.3559   -0.0392    0.0896 N   0  0  0  0  0  0  0  0  0  0  0  0
    4.6474   -0.0036    0.1282 O   0  0  0  0  0  0  0  0  0  0  0  0
   -0.8006   -0.1251   -0.2497 N   0  0  0  0  0  0  0  0  0  0  0  0
   -1.3809    1.2087   -0.4915 C   0  0  0  0  0  0  0  0  0  0  0  0
   -2.8688    1.0700   -0.8152 C   0  0  0  0  0  0  0  0  0  0  0  0
   -3.6062    0.3253    0.2936 C   0  0  0  0  0  0  0  0  0  0  0  0
   -2.9367   -1.0164    0.5754 C   0  0  0  0  0  0  0  0  0  0  0  0
   -1.4444   -0.8470    0.8641 C   0  0  0  0  0  0  0  0  0  0  0  0
  1  2  1  0
  2  3  2  0
  3  4  1  0
  4  5  2  0
  5  6  1  0
  6  7  1  0
  6  8  2  0
  8  9  1  0
  4 10  1  0
 10 11  1  0
 11 12  1  0
 12 13  1  0
 13 14  1  0
 14 15  1  0
  8  2  1  0
 15 10  1  0
M  CHG  2   8   1   9  -1
M  END
>  <target>  (496) 
-1.989

$$$$

     RDKit          3D

 15 17  0  0  0  0  0  0  0  0999 V2000
   -2.7320   -2.0616    0.2039 N   0  0  0  0  0  0  0  0  0  0  0  0
   -2.4023   -0.7025    0.0164 C   0  0  0  0  0  0  0  0  0  0  0  0
   -3.4274    0.1774   -0.3489 C   0  0  0  0  0  0  0  0  0  0  0  0
   -3.1484    1.5103   -0.6251 C   0  0  0  0  0  0  0  0  0  0  0  0
   -1.8310    1.9618   -0.5785 C   0  0  0  0  0  0  0  0  0  0  0  0
   -0.7766    1.1096   -0.2905 C   0  0  0  0  0  0  0  0  0  0  0  0
    0.4661    1.6230   -0.3042 N   0  0  0  0  0  0  0  0  0  0  0  0
    1.5145    0.8188   -0.0659 C   0  0  0  0  0  0  0  0  0  0  0  0
    2.7990    1.3469   -0.0844 C   0  0  0  0  0  0  0  0  0  0  0  0
    3.9255    0.5526    0.1499 C   0  0  0  0  0  0  0  0  0  0  0  0
    3.7721   -0.8041    0.4090 C   0  0  0  0  0  0  0  0  0  0  0  0
    2.4942   -1.3582    0.4339 C   0  0  0  0  0  0  0  0  0  0  0  0
    1.3647   -0.5523    0.1995 C   0  0  0  0  0  0  0  0  0  0  0  0
    0.0645   -1.0722    0.2204 C   0  0  0  0  0  0  0  0  0  0  0  0
   -1.0533   -0.2469   -0.0138 C   0  0  0  0  0  0  0  0  0  0  0  0
  1  2  1  0
  2  3  2  0
  3  4  1  0
  4  5  2  0
  5  6  1  0
  6  7  2  0
  7  8  1  0
  8  9  2  0
  9 10  1  0
 10 11  2  0
 11 12  1  0
 12 13  2  0
 13 14  1  0
 14 15  2  0
 13  8  1  0
 15  2  1  0
 15  6  1  0
M  END
>  <target>  (497) 
-4.22

$$$$

     RDKit          3D

 20 24  0  0  0  0  0  0  0  0999 V2000
   -4.8820    0.9204   -0.5872 C   0  0  0  0  0  0  0  0  0  0  0  0
   -4.9314   -0.4646   -0.7143 C   0  0  0  0  0  0  0  0  0  0  0  0
   -3.7580   -1.2168   -0.6376 C   0  0  0  0  0  0  0  0  0  0  0  0
   -2.5171   -0.5950   -0.4325 C   0  0  0  0  0  0  0  0  0  0  0  0
   -1.3381   -1.3579   -0.3561 C   0  0  0  0  0  0  0  0  0  0  0  0
   -0.1388   -0.7014   -0.1530 C   0  0  0  0  0  0  0  0  0  0  0  0
    1.2275   -1.1919   -0.0300 C   0  0  0  0  0  0  0  0  0  0  0  0
    1.7854   -2.4566   -0.0729 C   0  0  0  0  0  0  0  0  0  0  0  0
    3.1779   -2.5806    0.0853 C   0  0  0  0  0  0  0  0  0  0  0  0
    4.0006   -1.4497    0.2841 C   0  0  0  0  0  0  0  0  0  0  0  0
    3.4364   -0.1596    0.3285 C   0  0  0  0  0  0  0  0  0  0  0  0
    4.0906    1.0739    0.5158 C   0  0  0  0  0  0  0  0  0  0  0  0
    3.3512    2.2773    0.5313 C   0  0  0  0  0  0  0  0  0  0  0  0
    1.9545    2.2829    0.3621 C   0  0  0  0  0  0  0  0  0  0  0  0
    1.3084    1.0741    0.1780 C   0  0  0  0  0  0  0  0  0  0  0  0
   -0.0884    0.7119   -0.0233 C   0  0  0  0  0  0  0  0  0  0  0  0
   -1.2370    1.4775   -0.0958 C   0  0  0  0  0  0  0  0  0  0  0  0
   -2.4664    0.8265   -0.3021 C   0  0  0  0  0  0  0  0  0  0  0  0
   -3.6588    1.5613   -0.3826 C   0  0  0  0  0  0  0  0  0  0  0  0
    2.0547   -0.0954    0.1663 C   0  0  0  0  0  0  0  0  0  0  0  0
  1  2  2  0
  2  3  1  0
  3  4  2  0
  4  5  1  0
  5  6  2  0
  6  7  1  0
  7  8  2  0
  8  9  1  0
  9 10  2  0
 10 11  1  0
 11 12  1  0
 12 13  2  0
 13 14  1  0
 14 15  2  0
 15 16  1  0
 16 17  2  0
 17 18  1  0
 18 19  2  0
 15 20  1  0
 19  1  1  0
 18  4  1  0
 16  6  1  0
 20  7  1  0
 20 11  2  0
M  END
>  <target>  (498) 
-8.49

$$$$

     RDKit          3D

 20 21  0  0  0  0  0  0  0  0999 V2000
   -0.1562    0.8339    2.1231 O   0  0  0  0  0  0  0  0  0  0  0  0
   -0.1255    0.9582    0.6664 C   0  0  0  0  0  0  0  0  0  0  0  0
    1.2328    0.3733    0.1934 C   0  0  0  0  0  0  0  0  0  0  0  0
    2.3252    0.2581    1.0759 C   0  0  0  0  0  0  0  0  0  0  0  0
    3.5513   -0.2594    0.6472 C   0  0  0  0  0  0  0  0  0  0  0  0
    3.7053   -0.6732   -0.6714 C   0  0  0  0  0  0  0  0  0  0  0  0
    5.2125   -1.3114   -1.1995 Cl  0  0  0  0  0  0  0  0  0  0  0  0
    2.6435   -0.5746   -1.5646 C   0  0  0  0  0  0  0  0  0  0  0  0
    1.4172   -0.0563   -1.1365 C   0  0  0  0  0  0  0  0  0  0  0  0
   -1.2850    0.0244    0.2172 C   0  0  0  0  0  0  0  0  0  0  0  0
   -1.3140   -1.2977    0.7257 C   0  0  0  0  0  0  0  0  0  0  0  0
   -2.3144   -2.2047    0.3660 C   0  0  0  0  0  0  0  0  0  0  0  0
   -3.3122   -1.8109   -0.5148 C   0  0  0  0  0  0  0  0  0  0  0  0
   -4.5481   -2.9176   -0.9648 Cl  0  0  0  0  0  0  0  0  0  0  0  0
   -3.3117   -0.5211   -1.0351 C   0  0  0  0  0  0  0  0  0  0  0  0
   -2.3071    0.3879   -0.6747 C   0  0  0  0  0  0  0  0  0  0  0  0
   -0.2209    2.5223    0.3239 C   0  0  0  0  0  0  0  0  0  0  0  0
   -1.7518    3.2385    1.0016 Cl  0  0  0  0  0  0  0  0  0  0  0  0
   -0.1584    2.9170   -1.4352 Cl  0  0  0  0  0  0  0  0  0  0  0  0
    1.1202    3.4762    1.1053 Cl  0  0  0  0  0  0  0  0  0  0  0  0
  1  2  1  0
  2  3  1  0
  3  4  2  0
  4  5  1  0
  5  6  2  0
  6  7  1  0
  6  8  1  0
  8  9  2  0
  2 10  1  0
 10 11  2  0
 11 12  1  0
 12 13  2  0
 13 14  1  0
 13 15  1  0
 15 16  2  0
  2 17  1  0
 17 18  1  0
 17 19  1  0
 17 20  1  0
  9  3  1  0
 16 10  1  0
M  END
>  <target>  (499) 
-5.666

$$$$

     RDKit          3D

 12 14  0  0  0  0  0  0  0  0999 V2000
   -1.1676   -1.9966   -0.0122 C   0  0  0  0  0  0  0  0  0  0  0  0
   -2.1453   -0.8227    0.2662 C   0  0  0  0  0  0  0  0  0  0  0  0
   -1.2572    0.3860    0.2440 C   0  0  0  0  0  0  0  0  0  0  0  0
   -1.5772    1.7202    0.4314 C   0  0  0  0  0  0  0  0  0  0  0  0
   -0.5506    2.6767    0.3611 C   0  0  0  0  0  0  0  0  0  0  0  0
    0.7827    2.2976    0.1054 C   0  0  0  0  0  0  0  0  0  0  0  0
    1.1061    0.9413   -0.0848 C   0  0  0  0  0  0  0  0  0  0  0  0
    2.3731    0.3879   -0.3474 C   0  0  0  0  0  0  0  0  0  0  0  0
    2.5153   -1.0047   -0.5118 C   0  0  0  0  0  0  0  0  0  0  0  0
    1.4079   -1.8642   -0.4185 C   0  0  0  0  0  0  0  0  0  0  0  0
    0.1619   -1.3181   -0.1600 C   0  0  0  0  0  0  0  0  0  0  0  0
    0.0451    0.0384   -0.0035 C   0  0  0  0  0  0  0  0  0  0  0  0
  1  2  1  0
  2  3  1  0
  3  4  2  0
  4  5  1  0
  5  6  2  0
  6  7  1  0
  7  8  2  0
  8  9  1  0
  9 10  2  0
 10 11  1  0
 11 12  2  0
 11  1  1  0
 12  3  1  0
 12  7  1  0
M  END
>  <target>  (500) 
-4.63

$$$$

     RDKit          3D

 23 24  0  0  0  0  0  0  0  0999 V2000
   -1.0598    0.1359    3.6364 C   0  0  0  0  0  0  0  0  0  0  0  0
   -1.4806   -0.9315    2.6470 C   0  0  0  0  0  0  0  0  0  0  0  0
   -2.2507   -0.3162    1.6256 O   0  0  0  0  0  0  0  0  0  0  0  0
   -2.6874   -1.1865    0.3252 P   0  0  0  0  0  0  0  0  0  0  0  0
   -3.8650   -2.6809    0.7532 S   0  0  0  0  0  0  0  0  0  0  0  0
   -3.4503   -0.0169   -0.5092 O   0  0  0  0  0  0  0  0  0  0  0  0
   -4.6107    0.5904    0.0387 C   0  0  0  0  0  0  0  0  0  0  0  0
   -4.7875    1.9485   -0.6095 C   0  0  0  0  0  0  0  0  0  0  0  0
   -0.9438   -1.5717   -0.7849 S   0  0  0  0  0  0  0  0  0  0  0  0
   -0.1695    0.0770   -0.9108 C   0  0  0  0  0  0  0  0  0  0  0  0
   -0.7222    0.8596   -2.1123 C   0  0  0  0  0  0  0  0  0  0  0  0
   -0.0642    2.5255   -2.1452 Cl  0  0  0  0  0  0  0  0  0  0  0  0
    1.2809   -0.0790   -0.9154 N   0  0  0  0  0  0  0  0  0  0  0  0
    2.0379    0.0108    0.2222 C   0  0  0  0  0  0  0  0  0  0  0  0
    1.6793    0.2407    1.3616 O   0  0  0  0  0  0  0  0  0  0  0  0
    3.4204   -0.2573   -0.1679 C   0  0  0  0  0  0  0  0  0  0  0  0
    4.5820   -0.2627    0.5802 C   0  0  0  0  0  0  0  0  0  0  0  0
    5.7724   -0.5684   -0.0890 C   0  0  0  0  0  0  0  0  0  0  0  0
    5.7701   -0.8620   -1.4688 C   0  0  0  0  0  0  0  0  0  0  0  0
    4.5797   -0.8527   -2.2027 C   0  0  0  0  0  0  0  0  0  0  0  0
    3.4201   -0.5431   -1.5198 C   0  0  0  0  0  0  0  0  0  0  0  0
    2.0401   -0.4528   -1.9908 C   0  0  0  0  0  0  0  0  0  0  0  0
    1.7006   -0.6903   -3.1336 O   0  0  0  0  0  0  0  0  0  0  0  0
  1  2  1  0
  2  3  1  0
  3  4  1  0
  4  5  2  0
  4  6  1  0
  6  7  1  0
  7  8  1  0
  4  9  1  0
  9 10  1  0
 10 11  1  0
 11 12  1  0
 10 13  1  0
 13 14  1  0
 14 15  2  0
 14 16  1  0
 16 17  2  0
 17 18  1  0
 18 19  2  0
 19 20  1  0
 20 21  2  0
 21 22  1  0
 22 23  2  0
 21 16  1  0
 22 13  1  0
M  END
>  <target>  (501) 
-6.34

$$$$

     RDKit          3D

  8  8  0  0  0  0  0  0  0  0999 V2000
   -3.2680    0.2813   -0.0208 Br  0  0  0  0  0  0  0  0  0  0  0  0
   -1.3847    0.1192   -0.0088 C   0  0  0  0  0  0  0  0  0  0  0  0
   -0.7997   -1.1471    0.0021 C   0  0  0  0  0  0  0  0  0  0  0  0
    0.5918   -1.2669    0.0109 C   0  0  0  0  0  0  0  0  0  0  0  0
    1.3847   -0.1192    0.0088 C   0  0  0  0  0  0  0  0  0  0  0  0
    3.2680   -0.2813    0.0208 Br  0  0  0  0  0  0  0  0  0  0  0  0
    0.7997    1.1471   -0.0021 C   0  0  0  0  0  0  0  0  0  0  0  0
   -0.5918    1.2669   -0.0109 C   0  0  0  0  0  0  0  0  0  0  0  0
  1  2  1  0
  2  3  2  0
  3  4  1  0
  4  5  2  0
  5  6  1  0
  5  7  1  0
  7  8  2  0
  8  2  1  0
M  END
>  <target>  (502) 
-4.07

$$$$

     RDKit          3D

 16 17  0  0  0  0  0  0  0  0999 V2000
   -3.9220   -0.7491   -0.2633 C   0  0  0  0  0  0  0  0  0  0  0  0
   -2.6339   -0.1078   -0.2323 N   0  0  0  0  0  0  0  0  0  0  0  0
   -2.4202    1.2266   -0.2918 C   0  0  0  0  0  0  0  0  0  0  0  0
   -3.2621    2.1038   -0.4046 O   0  0  0  0  0  0  0  0  0  0  0  0
   -1.0734    1.4731   -0.1962 O   0  0  0  0  0  0  0  0  0  0  0  0
   -0.4447    0.2081   -0.0449 N   0  0  0  0  0  0  0  0  0  0  0  0
    0.9441    0.1397    0.1164 C   0  0  0  0  0  0  0  0  0  0  0  0
    1.5969   -1.0859    0.2902 C   0  0  0  0  0  0  0  0  0  0  0  0
    2.9864   -1.1398    0.4495 C   0  0  0  0  0  0  0  0  0  0  0  0
    3.7433    0.0327    0.4366 C   0  0  0  0  0  0  0  0  0  0  0  0
    5.4521   -0.1076    0.6386 Cl  0  0  0  0  0  0  0  0  0  0  0  0
    3.1035    1.2626    0.2631 C   0  0  0  0  0  0  0  0  0  0  0  0
    3.9687    2.7586    0.2347 Cl  0  0  0  0  0  0  0  0  0  0  0  0
    1.7124    1.3129    0.1039 C   0  0  0  0  0  0  0  0  0  0  0  0
   -1.4441   -0.7559   -0.0556 C   0  0  0  0  0  0  0  0  0  0  0  0
   -1.3187   -1.9659    0.0738 O   0  0  0  0  0  0  0  0  0  0  0  0
  1  2  1  0
  2  3  1  0
  3  4  2  0
  3  5  1  0
  5  6  1  0
  6  7  1  0
  7  8  2  0
  8  9  1  0
  9 10  2  0
 10 11  1  0
 10 12  1  0
 12 13  1  0
 12 14  2  0
  6 15  1  0
 15 16  2  0
 14  7  1  0
 15  2  1  0
M  END
>  <target>  (503) 
-2.82

$$$$

     RDKit          3D

 13 14  0  0  0  0  0  0  0  0999 V2000
    4.6232   -0.6470    0.1080 O   0  0  0  0  0  0  0  0  0  0  0  0
    3.2767   -0.4376    0.1400 C   0  0  0  0  0  0  0  0  0  0  0  0
    2.4467   -1.5136   -0.1435 C   0  0  0  0  0  0  0  0  0  0  0  0
    1.0600   -1.3431   -0.1207 C   0  0  0  0  0  0  0  0  0  0  0  0
    0.4892   -0.0957    0.1844 C   0  0  0  0  0  0  0  0  0  0  0  0
    1.3552    0.9757    0.4663 C   0  0  0  0  0  0  0  0  0  0  0  0
    2.7437    0.8088    0.4458 C   0  0  0  0  0  0  0  0  0  0  0  0
   -0.9719    0.0839    0.2091 C   0  0  0  0  0  0  0  0  0  0  0  0
   -1.7899   -0.7462    0.9937 C   0  0  0  0  0  0  0  0  0  0  0  0
   -3.1769   -0.5760    1.0189 C   0  0  0  0  0  0  0  0  0  0  0  0
   -3.7700    0.4280    0.2578 C   0  0  0  0  0  0  0  0  0  0  0  0
   -2.9779    1.2614   -0.5276 C   0  0  0  0  0  0  0  0  0  0  0  0
   -1.5909    1.0905   -0.5507 C   0  0  0  0  0  0  0  0  0  0  0  0
  1  2  1  0
  2  3  2  0
  3  4  1  0
  4  5  2  0
  5  6  1  0
  6  7  2  0
  5  8  1  0
  8  9  2  0
  9 10  1  0
 10 11  2  0
 11 12  1  0
 12 13  2  0
  7  2  1  0
 13  8  1  0
M  END
>  <target>  (504) 
-3.48

$$$$

     RDKit          3D

 16 17  0  0  0  0  0  0  0  0999 V2000
   -1.6587    2.0207   -0.3715 C   0  0  0  0  0  0  0  0  0  0  0  0
   -2.1413    0.7090    0.1800 C   0  0  0  0  0  0  0  0  0  0  0  0
   -1.3657   -0.2256    0.7669 C   0  0  0  0  0  0  0  0  0  0  0  0
   -1.9179   -1.4947    1.3444 C   0  0  0  0  0  0  0  0  0  0  0  0
   -3.3507   -1.7275    0.8825 C   0  0  0  0  0  0  0  0  0  0  0  0
   -4.1093   -0.4120    0.9195 C   0  0  0  0  0  0  0  0  0  0  0  0
   -3.5149    0.5639    0.0559 O   0  0  0  0  0  0  0  0  0  0  0  0
    0.1122   -0.0784    0.8944 C   0  0  0  0  0  0  0  0  0  0  0  0
    0.6219   -0.0684    2.0064 O   0  0  0  0  0  0  0  0  0  0  0  0
    0.7394   -0.0349   -0.3324 N   0  0  0  0  0  0  0  0  0  0  0  0
    2.1193    0.0946   -0.5860 C   0  0  0  0  0  0  0  0  0  0  0  0
    3.0863    0.2252    0.4120 C   0  0  0  0  0  0  0  0  0  0  0  0
    4.4380    0.3525    0.0760 C   0  0  0  0  0  0  0  0  0  0  0  0
    4.8330    0.3514   -1.2595 C   0  0  0  0  0  0  0  0  0  0  0  0
    3.8765    0.2233   -2.2625 C   0  0  0  0  0  0  0  0  0  0  0  0
    2.5261    0.0960   -1.9269 C   0  0  0  0  0  0  0  0  0  0  0  0
  1  2  1  0
  2  3  2  0
  3  4  1  0
  4  5  1  0
  5  6  1  0
  6  7  1  0
  3  8  1  0
  8  9  2  0
  8 10  1  0
 10 11  1  0
 11 12  2  0
 12 13  1  0
 13 14  2  0
 14 15  1  0
 15 16  2  0
  7  2  1  0
 16 11  1  0
M  END
>  <target>  (505) 
-2.56

$$$$

     RDKit          3D

  5  4  0  0  0  0  0  0  0  0999 V2000
   -2.0600    0.3448   -0.3299 C   0  0  0  0  0  0  0  0  0  0  0  0
   -0.5850    0.3667    0.0265 C   0  0  0  0  0  0  0  0  0  0  0  0
    0.0421   -0.7462   -0.6109 O   0  0  0  0  0  0  0  0  0  0  0  0
    1.3835   -0.9060   -0.4132 C   0  0  0  0  0  0  0  0  0  0  0  0
    2.2263   -0.1580    0.3076 C   0  0  0  0  0  0  0  0  0  0  0  0
  1  2  1  0
  2  3  1  0
  3  4  1  0
  4  5  2  0
M  END
>  <target>  (506) 
-0.85

$$$$

     RDKit          3D

  4  3  0  0  0  0  0  0  0  0999 V2000
   -1.2805   -0.2739    0.0875 C   0  0  0  0  0  0  0  0  0  0  0  0
   -0.1273    0.7123    0.0111 C   0  0  0  0  0  0  0  0  0  0  0  0
    1.1640    0.0173   -0.0803 C   0  0  0  0  0  0  0  0  0  0  0  0
    2.2211   -0.5474   -0.1550 C   0  0  0  0  0  0  0  0  0  0  0  0
  1  2  1  0
  2  3  1  0
  3  4  3  0
M  END
>  <target>  (507) 
-1.24

$$$$

     RDKit          3D

 12 13  0  0  0  0  0  0  0  0999 V2000
   -3.0580   -0.8446   -0.1506 C   0  0  0  0  0  0  0  0  0  0  0  0
   -1.6710   -1.1328   -0.0191 O   0  0  0  0  0  0  0  0  0  0  0  0
   -0.8562   -0.0089   -0.0636 C   0  0  0  0  0  0  0  0  0  0  0  0
   -1.4406    1.1982   -0.2213 N   0  0  0  0  0  0  0  0  0  0  0  0
   -0.6011    2.2305   -0.2553 C   0  0  0  0  0  0  0  0  0  0  0  0
    0.7259    2.1594   -0.1487 N   0  0  0  0  0  0  0  0  0  0  0  0
    1.2649    0.9518    0.0056 C   0  0  0  0  0  0  0  0  0  0  0  0
    2.5976    0.8939    0.1113 N   0  0  0  0  0  0  0  0  0  0  0  0
    3.1715   -0.3201    0.2688 C   0  0  0  0  0  0  0  0  0  0  0  0
    2.4349   -1.4800    0.3226 C   0  0  0  0  0  0  0  0  0  0  0  0
    1.0945   -1.4624    0.2201 N   0  0  0  0  0  0  0  0  0  0  0  0
    0.5114   -0.2313    0.0603 C   0  0  0  0  0  0  0  0  0  0  0  0
  1  2  1  0
  2  3  1  0
  3  4  2  0
  4  5  1  0
  5  6  2  0
  6  7  1  0
  7  8  2  0
  8  9  1  0
  9 10  2  0
 10 11  1  0
 11 12  2  0
 12  3  1  0
 12  7  1  0
M  END
>  <target>  (508) 
-1.11

$$$$

     RDKit          3D

  9  8  0  0  0  0  0  0  0  0999 V2000
   -3.4446    1.1531    0.4272 C   0  0  0  0  0  0  0  0  0  0  0  0
   -2.3410    0.7898   -0.5537 C   0  0  0  0  0  0  0  0  0  0  0  0
   -1.1452    0.1534    0.1581 C   0  0  0  0  0  0  0  0  0  0  0  0
   -0.0400   -0.2076   -0.8383 C   0  0  0  0  0  0  0  0  0  0  0  0
    1.2164   -0.8643   -0.2272 C   0  0  0  0  0  0  0  0  0  0  0  0
    0.8919   -2.2481    0.3507 C   0  0  0  0  0  0  0  0  0  0  0  0
    2.1294   -1.0677   -1.3160 O   0  0  0  0  0  0  0  0  0  0  0  0
    1.9207   -0.0059    0.8451 C   0  0  0  0  0  0  0  0  0  0  0  0
    2.3393    1.3803    0.3683 C   0  0  0  0  0  0  0  0  0  0  0  0
  1  2  1  0
  2  3  1  0
  3  4  1  0
  4  5  1  0
  5  6  1  0
  5  7  1  0
  5  8  1  0
  8  9  1  0
M  END
>  <target>  (509) 
-1.6

$$$$

     RDKit          3D

  8  8  0  0  0  0  0  0  0  0999 V2000
    3.0887    0.3617    0.0897 Cl  0  0  0  0  0  0  0  0  0  0  0  0
    1.3810    0.1617    0.0401 C   0  0  0  0  0  0  0  0  0  0  0  0
    0.5521    1.2838    0.0406 C   0  0  0  0  0  0  0  0  0  0  0  0
   -0.8350    1.1214    0.0003 C   0  0  0  0  0  0  0  0  0  0  0  0
   -1.3810   -0.1617   -0.0401 C   0  0  0  0  0  0  0  0  0  0  0  0
   -3.0887   -0.3617   -0.0897 Cl  0  0  0  0  0  0  0  0  0  0  0  0
   -0.5521   -1.2838   -0.0406 C   0  0  0  0  0  0  0  0  0  0  0  0
    0.8350   -1.1214   -0.0003 C   0  0  0  0  0  0  0  0  0  0  0  0
  1  2  1  0
  2  3  2  0
  3  4  1  0
  4  5  2  0
  5  6  1  0
  5  7  1  0
  7  8  2  0
  8  2  1  0
M  END
>  <target>  (510) 
-3.27

$$$$

     RDKit          3D

 24 26  0  0  0  0  0  0  0  0999 V2000
    0.4619   -0.0711   -3.3759 O   0  0  0  0  0  0  0  0  0  0  0  0
    0.3368   -0.2111   -2.1710 C   0  0  0  0  0  0  0  0  0  0  0  0
    1.3000   -0.5165   -1.2715 N   0  0  0  0  0  0  0  0  0  0  0  0
    2.6905   -0.6804   -1.5896 C   0  0  0  0  0  0  0  0  0  0  0  0
    3.3254    0.5855   -1.4118 O   0  0  0  0  0  0  0  0  0  0  0  0
    4.6599    0.5486   -1.6573 C   0  0  0  0  0  0  0  0  0  0  0  0
    5.2882   -0.4411   -2.0047 O   0  0  0  0  0  0  0  0  0  0  0  0
    5.2607    1.9035   -1.4422 C   0  0  0  0  0  0  0  0  0  0  0  0
    0.7731   -0.6088   -0.0141 C   0  0  0  0  0  0  0  0  0  0  0  0
    1.4101   -0.8985    0.9941 O   0  0  0  0  0  0  0  0  0  0  0  0
   -0.7544   -0.2889   -0.0819 C   0  0  0  0  0  0  0  0  0  0  0  0
   -0.8583   -0.0837   -1.5154 N   0  0  0  0  0  0  0  0  0  0  0  0
   -1.6810   -1.4530    0.2974 C   0  0  0  0  0  0  0  0  0  0  0  0
   -3.0796   -1.2773    0.2210 C   0  0  0  0  0  0  0  0  0  0  0  0
   -3.9592   -2.3127    0.5444 C   0  0  0  0  0  0  0  0  0  0  0  0
   -3.4607   -3.5470    0.9472 C   0  0  0  0  0  0  0  0  0  0  0  0
   -2.0853   -3.7451    1.0282 C   0  0  0  0  0  0  0  0  0  0  0  0
   -1.2024   -2.7098    0.7059 C   0  0  0  0  0  0  0  0  0  0  0  0
   -1.0346    0.9933    0.7184 C   0  0  0  0  0  0  0  0  0  0  0  0
   -0.9964    0.9570    2.1264 C   0  0  0  0  0  0  0  0  0  0  0  0
   -1.2334    2.1050    2.8847 C   0  0  0  0  0  0  0  0  0  0  0  0
   -1.5089    3.3133    2.2522 C   0  0  0  0  0  0  0  0  0  0  0  0
   -1.5455    3.3752    0.8621 C   0  0  0  0  0  0  0  0  0  0  0  0
   -1.3089    2.2276    0.1005 C   0  0  0  0  0  0  0  0  0  0  0  0
  1  2  2  0
  2  3  1  0
  3  4  1  0
  4  5  1  0
  5  6  1  0
  6  7  2  0
  6  8  1  0
  3  9  1  0
  9 10  2  0
  9 11  1  0
 11 12  1  0
 11 13  1  0
 13 14  2  0
 14 15  1  0
 15 16  2  0
 16 17  1  0
 17 18  2  0
 11 19  1  0
 19 20  2  0
 20 21  1  0
 21 22  2  0
 22 23  1  0
 23 24  2  0
 12  2  1  0
 18 13  1  0
 24 19  1  0
M  END
>  <target>  (511) 
-4.47

$$$$

     RDKit          3D

 23 23  0  0  0  0  0  0  0  0999 V2000
    1.0001   -1.3741   -4.4528 C   0  0  0  0  0  0  0  0  0  0  0  0
    0.0585   -0.2454   -3.4007 S   0  0  0  0  0  0  0  0  0  0  0  0
    1.3049    0.0193   -2.1089 C   0  0  0  0  0  0  0  0  0  0  0  0
    0.8208    1.3380   -0.9578 S   0  0  0  0  0  0  0  0  0  0  0  0
    1.3925    2.6366   -1.4433 O   0  0  0  0  0  0  0  0  0  0  0  0
    1.8422    0.7861    0.4503 C   0  0  0  0  0  0  0  0  0  0  0  0
    1.5244    1.6330    1.6941 C   0  0  0  0  0  0  0  0  0  0  0  0
    2.5473    1.3722    2.8188 C   0  0  0  0  0  0  0  0  0  0  0  0
    2.8360   -0.0119    2.9856 O   0  0  0  0  0  0  0  0  0  0  0  0
    0.1265    1.4572    2.1307 N   0  0  0  0  0  0  0  0  0  0  0  0
   -0.3765    0.3041    2.6681 C   0  0  0  0  0  0  0  0  0  0  0  0
    0.2904   -0.6534    3.0336 O   0  0  0  0  0  0  0  0  0  0  0  0
   -1.8483    0.3029    2.7814 C   0  0  0  0  0  0  0  0  0  0  0  0
   -2.6547    0.1112    1.7247 C   0  0  0  0  0  0  0  0  0  0  0  0
   -2.2416   -0.1316    0.3514 C   0  0  0  0  0  0  0  0  0  0  0  0
   -1.6039   -1.2375   -0.0873 C   0  0  0  0  0  0  0  0  0  0  0  0
   -1.2606   -2.4401    0.7507 C   0  0  0  0  0  0  0  0  0  0  0  0
   -1.2316   -1.3403   -1.4113 N   0  0  0  0  0  0  0  0  0  0  0  0
   -1.4621   -0.3895   -2.3619 C   0  0  0  0  0  0  0  0  0  0  0  0
   -1.2094   -0.5757   -3.5472 O   0  0  0  0  0  0  0  0  0  0  0  0
   -2.0044    0.7715   -1.9051 N   0  0  0  0  0  0  0  0  0  0  0  0
   -2.5637    0.9267   -0.6662 C   0  0  0  0  0  0  0  0  0  0  0  0
   -3.2742    1.8891   -0.3937 O   0  0  0  0  0  0  0  0  0  0  0  0
  1  2  1  0
  2  3  1  0
  3  4  1  0
  4  5  2  0
  4  6  1  0
  6  7  1  0
  7  8  1  0
  8  9  1  0
  7 10  1  0
 10 11  1  0
 11 12  2  0
 11 13  1  0
 13 14  2  3
 14 15  1  0
 15 16  2  0
 16 17  1  0
 16 18  1  0
 18 19  1  0
 19 20  2  0
 19 21  1  0
 21 22  1  0
 22 23  2  0
 22 15  1  0
M  END
>  <target>  (512) 
-1.9809999999999999

$$$$

     RDKit          3D

 10 11  0  0  0  0  0  0  0  0999 V2000
    2.6786   -0.4794    0.3848 C   0  0  0  0  0  0  0  0  0  0  0  0
    1.4546    0.2375   -0.0560 C   0  0  0  0  0  0  0  0  0  0  0  0
    1.4011    1.4545   -0.7061 C   0  0  0  0  0  0  0  0  0  0  0  0
    0.0872    1.7634   -0.9341 N   0  0  0  0  0  0  0  0  0  0  0  0
   -0.7277    0.7698   -0.4448 C   0  0  0  0  0  0  0  0  0  0  0  0
   -2.1236    0.6604   -0.4542 C   0  0  0  0  0  0  0  0  0  0  0  0
   -2.6878   -0.4799    0.1252 C   0  0  0  0  0  0  0  0  0  0  0  0
   -1.8863   -1.4688    0.6902 C   0  0  0  0  0  0  0  0  0  0  0  0
   -0.4921   -1.3430    0.6908 C   0  0  0  0  0  0  0  0  0  0  0  0
    0.1027   -0.2026    0.1128 C   0  0  0  0  0  0  0  0  0  0  0  0
  1  2  1  0
  2  3  2  0
  3  4  1  0
  4  5  1  0
  5  6  2  0
  6  7  1  0
  7  8  2  0
  8  9  1  0
  9 10  2  0
 10  2  1  0
 10  5  1  0
M  END
>  <target>  (513) 
-2.42

$$$$

     RDKit          3D

 12 13  0  0  0  0  0  0  0  0999 V2000
    3.3144    0.9591    0.2004 C   0  0  0  0  0  0  0  0  0  0  0  0
    2.9032   -0.3877    0.0052 O   0  0  0  0  0  0  0  0  0  0  0  0
    1.5349   -0.5427    0.0144 C   0  0  0  0  0  0  0  0  0  0  0  0
    1.1168   -1.7980   -0.1668 N   0  0  0  0  0  0  0  0  0  0  0  0
   -0.2199   -1.9705   -0.1610 C   0  0  0  0  0  0  0  0  0  0  0  0
   -1.1429   -0.9672    0.0139 C   0  0  0  0  0  0  0  0  0  0  0  0
   -2.4841   -1.1935    0.0116 N   0  0  0  0  0  0  0  0  0  0  0  0
   -3.2573   -0.1067    0.1956 C   0  0  0  0  0  0  0  0  0  0  0  0
   -2.7099    1.1452    0.3731 C   0  0  0  0  0  0  0  0  0  0  0  0
   -1.3736    1.3591    0.3737 N   0  0  0  0  0  0  0  0  0  0  0  0
   -0.5708    0.3037    0.1937 C   0  0  0  0  0  0  0  0  0  0  0  0
    0.7421    0.5183    0.1949 N   0  0  0  0  0  0  0  0  0  0  0  0
  1  2  1  0
  2  3  1  0
  3  4  2  0
  4  5  1  0
  5  6  2  0
  6  7  1  0
  7  8  2  0
  8  9  1  0
  9 10  2  0
 10 11  1  0
 11 12  2  0
 11  6  1  0
 12  3  1  0
M  END
>  <target>  (514) 
-1.11

$$$$

     RDKit          3D

 16 17  0  0  0  0  0  0  0  0999 V2000
    3.1788   -1.6688   -2.4995 C   0  0  0  0  0  0  0  0  0  0  0  0
    2.8119   -1.0574   -1.2524 N   0  0  0  0  0  0  0  0  0  0  0  0
    1.8632   -0.0745   -1.1842 C   0  0  0  0  0  0  0  0  0  0  0  0
    1.3391    0.4558   -2.1541 O   0  0  0  0  0  0  0  0  0  0  0  0
    1.5844    0.1926    0.1450 O   0  0  0  0  0  0  0  0  0  0  0  0
    0.5926    1.1630    0.3423 C   0  0  0  0  0  0  0  0  0  0  0  0
    1.0317    2.4533    0.6546 C   0  0  0  0  0  0  0  0  0  0  0  0
    0.0987    3.4546    0.9069 C   0  0  0  0  0  0  0  0  0  0  0  0
   -1.2619    3.1602    0.8559 C   0  0  0  0  0  0  0  0  0  0  0  0
   -1.6920    1.8622    0.5595 C   0  0  0  0  0  0  0  0  0  0  0  0
   -0.7718    0.8285    0.3104 C   0  0  0  0  0  0  0  0  0  0  0  0
   -1.2358   -0.5736   -0.0280 C   0  0  0  0  0  0  0  0  0  0  0  0
   -0.5618   -1.5453    0.7939 O   0  0  0  0  0  0  0  0  0  0  0  0
   -1.5586   -1.9962    1.7057 C   0  0  0  0  0  0  0  0  0  0  0  0
   -2.8171   -1.9247    0.8898 C   0  0  0  0  0  0  0  0  0  0  0  0
   -2.6593   -0.7242    0.1391 O   0  0  0  0  0  0  0  0  0  0  0  0
  1  2  1  0
  2  3  1  0
  3  4  2  0
  3  5  1  0
  5  6  1  0
  6  7  2  0
  7  8  1  0
  8  9  2  0
  9 10  1  0
 10 11  2  0
 11 12  1  0
 12 13  1  0
 13 14  1  0
 14 15  1  0
 15 16  1  0
 11  6  1  0
 16 12  1  0
M  END
>  <target>  (515) 
-1.57

$$$$

     RDKit          3D

 13 13  0  0  0  0  0  0  0  0999 V2000
   -3.0805    0.6307    0.5227 C   0  0  0  0  0  0  0  0  0  0  0  0
   -1.9058    0.1438   -0.1650 N   0  0  0  0  0  0  0  0  0  0  0  0
   -0.7042    0.8237   -0.0922 C   0  0  0  0  0  0  0  0  0  0  0  0
   -0.5764    1.8646    0.5499 O   0  0  0  0  0  0  0  0  0  0  0  0
    0.3263    0.2476   -0.7871 N   0  0  0  0  0  0  0  0  0  0  0  0
    1.6818    0.7498   -0.7362 C   0  0  0  0  0  0  0  0  0  0  0  0
    2.4347    0.2942    0.5236 C   0  0  0  0  0  0  0  0  0  0  0  0
    3.7950    0.9884    0.5995 C   0  0  0  0  0  0  0  0  0  0  0  0
    2.6209   -1.2245    0.5498 C   0  0  0  0  0  0  0  0  0  0  0  0
   -2.1511   -1.1483   -0.6596 C   0  0  0  0  0  0  0  0  0  0  0  0
   -1.3737   -1.8799   -1.2521 O   0  0  0  0  0  0  0  0  0  0  0  0
   -3.4774   -1.4674   -0.3933 N   0  0  0  0  0  0  0  0  0  0  0  0
   -4.1855   -0.3079    0.0704 C   0  0  0  0  0  0  0  0  0  0  0  0
  1  2  1  0
  2  3  1  0
  3  4  2  0
  3  5  1  0
  5  6  1  0
  6  7  1  0
  7  8  1  0
  7  9  1  0
  2 10  1  0
 10 11  2  0
 10 12  1  0
 12 13  1  0
 13  1  1  0
M  END
>  <target>  (516) 
-2.15

$$$$

     RDKit          3D

  3  2  0  0  0  0  0  0  0  0999 V2000
   -0.4863   -0.0011   -0.0002 C   0  0  0  0  0  0  0  0  0  0  0  0
    0.9756    0.0023    0.0004 C   0  0  0  0  0  0  0  0  0  0  0  0
    2.1358    0.0050    0.0009 N   0  0  0  0  0  0  0  0  0  0  0  0
  1  2  1  0
  2  3  3  0
M  END
>  <target>  (517) 
0.26

$$$$

     RDKit          3D

 22 23  0  0  0  0  0  0  0  0999 V2000
   -6.0348    1.7879    0.4575 C   0  0  0  0  0  0  0  0  0  0  0  0
   -6.5886    0.6692   -0.4050 C   0  0  0  0  0  0  0  0  0  0  0  0
   -5.5222    0.0022   -1.0952 O   0  0  0  0  0  0  0  0  0  0  0  0
   -4.9226   -1.0049   -0.4171 C   0  0  0  0  0  0  0  0  0  0  0  0
   -5.2008   -1.3703    0.7148 O   0  0  0  0  0  0  0  0  0  0  0  0
   -3.9374   -1.5375   -1.1904 N   0  0  0  0  0  0  0  0  0  0  0  0
   -2.9901   -2.5033   -0.6720 C   0  0  0  0  0  0  0  0  0  0  0  0
   -1.8804   -1.8466    0.1525 C   0  0  0  0  0  0  0  0  0  0  0  0
   -1.0723   -1.0635   -0.7326 O   0  0  0  0  0  0  0  0  0  0  0  0
    0.0378   -0.4723   -0.1966 C   0  0  0  0  0  0  0  0  0  0  0  0
    0.8660    0.1619   -1.1278 C   0  0  0  0  0  0  0  0  0  0  0  0
    2.0426    0.7923   -0.7202 C   0  0  0  0  0  0  0  0  0  0  0  0
    2.3989    0.7767    0.6280 C   0  0  0  0  0  0  0  0  0  0  0  0
    3.5394    1.3895    1.0907 O   0  0  0  0  0  0  0  0  0  0  0  0
    4.7295    1.0307    0.4960 C   0  0  0  0  0  0  0  0  0  0  0  0
    5.0529   -0.2884    0.1649 C   0  0  0  0  0  0  0  0  0  0  0  0
    6.2922   -0.5761   -0.4088 C   0  0  0  0  0  0  0  0  0  0  0  0
    7.2117    0.4483   -0.6357 C   0  0  0  0  0  0  0  0  0  0  0  0
    6.8972    1.7611   -0.2835 C   0  0  0  0  0  0  0  0  0  0  0  0
    5.6582    2.0515    0.2889 C   0  0  0  0  0  0  0  0  0  0  0  0
    1.5611    0.1805    1.5687 C   0  0  0  0  0  0  0  0  0  0  0  0
    0.3835   -0.4506    1.1562 C   0  0  0  0  0  0  0  0  0  0  0  0
  1  2  1  0
  2  3  1  0
  3  4  1  0
  4  5  2  0
  4  6  1  0
  6  7  1  0
  7  8  1  0
  8  9  1  0
  9 10  1  0
 10 11  2  0
 11 12  1  0
 12 13  2  0
 13 14  1  0
 14 15  1  0
 15 16  2  0
 16 17  1  0
 17 18  2  0
 18 19  1  0
 19 20  2  0
 13 21  1  0
 21 22  2  0
 20 15  1  0
 22 10  1  0
M  END
>  <target>  (518) 
-4.7

$$$$

     RDKit          3D

 20 21  0  0  0  0  0  0  0  0999 V2000
   -0.3402   -3.0428    0.4242 C   0  0  0  0  0  0  0  0  0  0  0  0
   -0.0865   -2.1436   -0.7700 C   0  0  0  0  0  0  0  0  0  0  0  0
    0.5713   -2.5841   -1.7176 O   0  0  0  0  0  0  0  0  0  0  0  0
   -0.5629   -0.8321   -0.6720 N   0  0  0  0  0  0  0  0  0  0  0  0
    0.0745    0.2407   -1.8137 S   0  0  0  0  0  0  0  0  0  0  0  0
   -0.5593    1.5983   -1.7635 O   0  0  0  0  0  0  0  0  0  0  0  0
    1.6862    0.4178   -0.9935 C   0  0  0  0  0  0  0  0  0  0  0  0
    2.7498   -0.4206   -1.3408 C   0  0  0  0  0  0  0  0  0  0  0  0
    3.9973   -0.2764   -0.7236 C   0  0  0  0  0  0  0  0  0  0  0  0
    4.2233    0.7430    0.2029 C   0  0  0  0  0  0  0  0  0  0  0  0
    5.4351    0.8087    0.8982 N   0  0  0  0  0  0  0  0  0  0  0  0
    3.1508    1.5553    0.5750 C   0  0  0  0  0  0  0  0  0  0  0  0
    1.8995    1.4138   -0.0358 C   0  0  0  0  0  0  0  0  0  0  0  0
   -1.8654   -0.6393   -0.2062 C   0  0  0  0  0  0  0  0  0  0  0  0
   -2.6873   -1.7346   -0.2060 O   0  0  0  0  0  0  0  0  0  0  0  0
   -3.9468   -1.4003    0.2275 N   0  0  0  0  0  0  0  0  0  0  0  0
   -3.8967   -0.0962    0.5037 C   0  0  0  0  0  0  0  0  0  0  0  0
   -5.1034    0.6014    1.0086 C   0  0  0  0  0  0  0  0  0  0  0  0
   -2.5943    0.4380    0.2749 C   0  0  0  0  0  0  0  0  0  0  0  0
   -2.1760    1.8299    0.5624 C   0  0  0  0  0  0  0  0  0  0  0  0
  1  2  1  0
  2  3  2  0
  2  4  1  0
  4  5  1  0
  5  6  2  0
  5  7  1  0
  7  8  2  0
  8  9  1  0
  9 10  2  0
 10 11  1  0
 10 12  1  0
 12 13  2  0
  4 14  1  0
 14 15  1  0
 15 16  1  0
 16 17  2  0
 17 18  1  0
 17 19  1  0
 19 20  1  0
 13  7  1  0
 19 14  2  0
M  END
>  <target>  (519) 
-3.59

$$$$

     RDKit          3D

  6  5  0  0  0  0  0  0  0  0999 V2000
   -1.8700    0.8251    0.8387 Cl  0  0  0  0  0  0  0  0  0  0  0  0
   -0.7783   -0.1977   -0.1454 C   0  0  0  0  0  0  0  0  0  0  0  0
    0.7153    0.0936    0.0532 C   0  0  0  0  0  0  0  0  0  0  0  0
    1.6622   -1.0154   -1.0032 Cl  0  0  0  0  0  0  0  0  0  0  0  0
    1.2258   -0.1969    1.7452 Cl  0  0  0  0  0  0  0  0  0  0  0  0
    1.1281    1.7735   -0.4111 Cl  0  0  0  0  0  0  0  0  0  0  0  0
  1  2  1  0
  2  3  1  0
  3  4  1  0
  3  5  1  0
  3  6  1  0
M  END
>  <target>  (520) 
-2.18

$$$$

     RDKit          3D

  5  4  0  0  0  0  0  0  0  0999 V2000
    2.1608    0.2301   -0.3049 C   0  0  0  0  0  0  0  0  0  0  0  0
    0.8978   -0.1127    0.4689 C   0  0  0  0  0  0  0  0  0  0  0  0
   -0.3544    0.1290   -0.3690 C   0  0  0  0  0  0  0  0  0  0  0  0
   -1.6213   -0.2131    0.4023 C   0  0  0  0  0  0  0  0  0  0  0  0
   -2.7463    0.0328   -0.4299 O   0  0  0  0  0  0  0  0  0  0  0  0
  1  2  1  0
  2  3  1  0
  3  4  1  0
  4  5  1  0
M  END
>  <target>  (521) 
0.0

$$$$

     RDKit          3D

 17 18  0  0  0  0  0  0  0  0999 V2000
   -2.7759   -2.1703    0.0172 C   0  0  0  0  0  0  0  0  0  0  0  0
   -2.9690   -0.6650    0.2122 C   0  0  0  0  0  0  0  0  0  0  0  0
   -3.4256   -0.0011   -1.0960 C   0  0  0  0  0  0  0  0  0  0  0  0
   -3.6349    1.5009   -0.9215 C   0  0  0  0  0  0  0  0  0  0  0  0
   -2.4000    2.1873   -0.3474 C   0  0  0  0  0  0  0  0  0  0  0  0
   -1.9404    1.5295    0.9534 C   0  0  0  0  0  0  0  0  0  0  0  0
   -1.7118    0.0161    0.7991 C   0  0  0  0  0  0  0  0  0  0  0  0
   -0.5224   -0.2558   -0.0066 N   0  0  0  0  0  0  0  0  0  0  0  0
    0.7440   -0.1446    0.5405 C   0  0  0  0  0  0  0  0  0  0  0  0
    0.9339    0.1255    1.7181 O   0  0  0  0  0  0  0  0  0  0  0  0
    1.7020   -0.3972   -0.4176 N   0  0  0  0  0  0  0  0  0  0  0  0
    3.1007   -0.2962   -0.2822 C   0  0  0  0  0  0  0  0  0  0  0  0
    3.8844   -0.7615   -1.3464 C   0  0  0  0  0  0  0  0  0  0  0  0
    5.2788   -0.6862   -1.2914 C   0  0  0  0  0  0  0  0  0  0  0  0
    5.9024   -0.1408   -0.1727 C   0  0  0  0  0  0  0  0  0  0  0  0
    5.1313    0.3300    0.8874 C   0  0  0  0  0  0  0  0  0  0  0  0
    3.7357    0.2547    0.8322 C   0  0  0  0  0  0  0  0  0  0  0  0
  1  2  1  0
  2  3  1  0
  3  4  1  0
  4  5  1  0
  5  6  1  0
  6  7  1  0
  7  8  1  0
  8  9  1  0
  9 10  2  0
  9 11  1  0
 11 12  1  0
 12 13  2  0
 13 14  1  0
 14 15  2  0
 15 16  1  0
 16 17  2  0
  7  2  1  0
 17 12  1  0
M  END
>  <target>  (522) 
-4.11

$$$$

     RDKit          3D

  9  9  0  0  0  0  0  0  0  0999 V2000
    2.9659   -0.9283   -0.0905 Cl  0  0  0  0  0  0  0  0  0  0  0  0
    1.3245   -0.4146   -0.0404 C   0  0  0  0  0  0  0  0  0  0  0  0
    0.3042   -1.3634   -0.0669 C   0  0  0  0  0  0  0  0  0  0  0  0
   -1.0224   -0.9390   -0.0260 C   0  0  0  0  0  0  0  0  0  0  0  0
   -2.2895   -2.1027   -0.0582 Cl  0  0  0  0  0  0  0  0  0  0  0  0
   -1.3341    0.4176    0.0407 C   0  0  0  0  0  0  0  0  0  0  0  0
   -0.3021    1.3535    0.0664 C   0  0  0  0  0  0  0  0  0  0  0  0
   -0.6764    3.0310    0.1487 Cl  0  0  0  0  0  0  0  0  0  0  0  0
    1.0299    0.9458    0.0262 C   0  0  0  0  0  0  0  0  0  0  0  0
  1  2  1  0
  2  3  2  0
  3  4  1  0
  4  5  1  0
  4  6  2  0
  6  7  1  0
  7  8  1  0
  7  9  2  0
  9  2  1  0
M  END
>  <target>  (523) 
-4.48

$$$$

     RDKit          3D

  7  7  0  0  0  0  0  0  0  0999 V2000
    2.7834    0.3702    0.7961 O   0  0  0  0  0  0  0  0  0  0  0  0
    2.0138   -0.3554    0.1706 C   0  0  0  0  0  0  0  0  0  0  0  0
    0.6003   -0.1348    0.0321 C   0  0  0  0  0  0  0  0  0  0  0  0
   -0.2273    0.8598    0.5140 C   0  0  0  0  0  0  0  0  0  0  0  0
   -1.5320    0.5562    0.0562 C   0  0  0  0  0  0  0  0  0  0  0  0
   -1.4204   -0.6027   -0.6754 C   0  0  0  0  0  0  0  0  0  0  0  0
   -0.1312   -1.0305   -0.6966 O   0  0  0  0  0  0  0  0  0  0  0  0
  1  2  2  0
  2  3  1  0
  3  4  2  0
  4  5  1  0
  5  6  2  0
  6  7  1  0
  7  3  1  0
M  END
>  <target>  (524) 
-0.1

$$$$

     RDKit          3D

  6  5  0  0  0  0  0  0  0  0999 V2000
    1.9167   -0.1219   -0.9113 C   0  0  0  0  0  0  0  0  0  0  0  0
    0.6824    0.3911   -0.1658 C   0  0  0  0  0  0  0  0  0  0  0  0
    0.9690    0.4401    1.3356 C   0  0  0  0  0  0  0  0  0  0  0  0
   -0.5331   -0.4881   -0.5013 C   0  0  0  0  0  0  0  0  0  0  0  0
   -1.8428    0.0261    0.0844 C   0  0  0  0  0  0  0  0  0  0  0  0
   -2.9044   -0.7991   -0.3787 O   0  0  0  0  0  0  0  0  0  0  0  0
  1  2  1  0
  2  3  1  0
  2  4  1  0
  4  5  1  0
  5  6  1  0
M  END
>  <target>  (525) 
-0.51

$$$$

     RDKit          3D

 11 12  0  0  0  0  0  0  0  0999 V2000
    3.8959   -0.2917    0.4255 O   0  0  0  0  0  0  0  0  0  0  0  0
    2.9575    0.4683    0.6284 C   0  0  0  0  0  0  0  0  0  0  0  0
    1.5641    0.0955    0.3130 C   0  0  0  0  0  0  0  0  0  0  0  0
    1.2822   -1.1708   -0.2400 C   0  0  0  0  0  0  0  0  0  0  0  0
   -0.0344   -1.5316   -0.5416 C   0  0  0  0  0  0  0  0  0  0  0  0
   -1.0257   -0.6102   -0.2785 C   0  0  0  0  0  0  0  0  0  0  0  0
   -2.3544   -0.7866   -0.5057 O   0  0  0  0  0  0  0  0  0  0  0  0
   -2.8809    0.4762   -0.0482 C   0  0  0  0  0  0  0  0  0  0  0  0
   -1.8642    1.3774    0.4404 O   0  0  0  0  0  0  0  0  0  0  0  0
   -0.7456    0.6248    0.2615 C   0  0  0  0  0  0  0  0  0  0  0  0
    0.5406    1.0135    0.5710 C   0  0  0  0  0  0  0  0  0  0  0  0
  1  2  2  0
  2  3  1  0
  3  4  2  0
  4  5  1  0
  5  6  2  0
  6  7  1  0
  7  8  1  0
  8  9  1  0
  9 10  1  0
 10 11  2  0
 10  6  1  0
 11  3  1  0
M  END
>  <target>  (526) 
-1.63

$$$$

     RDKit          3D

  4  3  0  0  0  0  0  0  0  0999 V2000
    1.3479   -0.0690    0.3830 C   0  0  0  0  0  0  0  0  0  0  0  0
   -0.0865    0.1861    0.0201 C   0  0  0  0  0  0  0  0  0  0  0  0
   -0.6495    1.3976    0.1506 C   0  0  0  0  0  0  0  0  0  0  0  0
   -0.8526   -0.9967   -0.4979 C   0  0  0  0  0  0  0  0  0  0  0  0
  1  2  1  0
  2  3  2  0
  2  4  1  0
M  END
>  <target>  (527) 
-2.33

$$$$

     RDKit          3D

  8  8  0  0  0  0  0  0  0  0999 V2000
    3.1381   -0.4991   -0.1209 O   0  0  0  0  0  0  0  0  0  0  0  0
    2.3149    0.3363    0.2317 C   0  0  0  0  0  0  0  0  0  0  0  0
    0.8614    0.1221    0.0848 C   0  0  0  0  0  0  0  0  0  0  0  0
   -0.0241    1.1174    0.5082 C   0  0  0  0  0  0  0  0  0  0  0  0
   -1.3992    0.9197    0.3715 C   0  0  0  0  0  0  0  0  0  0  0  0
   -1.8836   -0.2655   -0.1848 C   0  0  0  0  0  0  0  0  0  0  0  0
   -0.9967   -1.2571   -0.6064 C   0  0  0  0  0  0  0  0  0  0  0  0
    0.3787   -1.0654   -0.4724 C   0  0  0  0  0  0  0  0  0  0  0  0
  1  2  2  0
  2  3  1  0
  3  4  2  0
  4  5  1  0
  5  6  2  0
  6  7  1  0
  7  8  2  0
  8  3  1  0
M  END
>  <target>  (528) 
-1.19

$$$$

     RDKit          3D

  6  5  0  0  0  0  0  0  0  0999 V2000
    1.2528   -0.0658   -1.3178 C   0  0  0  0  0  0  0  0  0  0  0  0
    0.7531    0.0862    0.0930 C   0  0  0  0  0  0  0  0  0  0  0  0
    1.5718    0.4649    1.0887 C   0  0  0  0  0  0  0  0  0  0  0  0
   -0.6597   -0.1965    0.3309 C   0  0  0  0  0  0  0  0  0  0  0  0
   -1.0526   -1.0776    1.2659 C   0  0  0  0  0  0  0  0  0  0  0  0
   -1.6575    0.5434   -0.5176 C   0  0  0  0  0  0  0  0  0  0  0  0
  1  2  1  0
  2  3  2  0
  2  4  1  0
  4  5  2  0
  4  6  1  0
M  END
>  <target>  (529) 
-2.4

$$$$

     RDKit          3D

 28 29  0  0  0  0  0  0  0  0999 V2000
   -0.0225    4.4643   -2.1451 C   0  0  0  0  0  0  0  0  0  0  0  0
   -0.6608    3.4106   -1.2604 C   0  0  0  0  0  0  0  0  0  0  0  0
   -0.3616    2.1013   -1.7616 O   0  0  0  0  0  0  0  0  0  0  0  0
    0.7887    1.5327   -1.3035 C   0  0  0  0  0  0  0  0  0  0  0  0
    1.5969    2.0706   -0.5585 O   0  0  0  0  0  0  0  0  0  0  0  0
    0.9587    0.1642   -1.9115 C   0  0  0  0  0  0  0  0  0  0  0  0
    1.6359   -0.7768   -0.9182 C   0  0  0  0  0  0  0  0  0  0  0  0
    1.6713   -2.1899   -1.3508 N   0  0  0  0  0  0  0  0  0  0  0  0
    0.2828   -3.1113   -1.3515 S   0  0  0  0  0  0  0  0  0  0  0  0
   -0.2356   -3.1624    0.2696 N   0  0  0  0  0  0  0  0  0  0  0  0
    0.2635   -4.2483    1.0859 C   0  0  0  0  0  0  0  0  0  0  0  0
   -1.2490   -2.3375    0.7586 C   0  0  0  0  0  0  0  0  0  0  0  0
   -1.7351   -2.4605    1.8825 O   0  0  0  0  0  0  0  0  0  0  0  0
   -1.6562   -1.3705   -0.1645 O   0  0  0  0  0  0  0  0  0  0  0  0
   -2.3814   -0.3133    0.3783 C   0  0  0  0  0  0  0  0  0  0  0  0
   -3.6850   -0.0894   -0.0595 C   0  0  0  0  0  0  0  0  0  0  0  0
   -4.4021    1.0139    0.4305 C   0  0  0  0  0  0  0  0  0  0  0  0
   -3.8136    1.9007    1.3409 C   0  0  0  0  0  0  0  0  0  0  0  0
   -2.5137    1.6599    1.7539 C   0  0  0  0  0  0  0  0  0  0  0  0
   -1.6492    2.4502    2.6613 C   0  0  0  0  0  0  0  0  0  0  0  0
   -0.4656    1.4686    2.8224 C   0  0  0  0  0  0  0  0  0  0  0  0
    0.8760    2.1956    2.7287 C   0  0  0  0  0  0  0  0  0  0  0  0
   -0.5447    0.6940    4.1452 C   0  0  0  0  0  0  0  0  0  0  0  0
   -0.5212    0.5006    1.7377 O   0  0  0  0  0  0  0  0  0  0  0  0
   -1.8067    0.5742    1.2696 C   0  0  0  0  0  0  0  0  0  0  0  0
    2.8030   -2.4796   -2.2580 C   0  0  0  0  0  0  0  0  0  0  0  0
    3.4925   -3.7856   -1.8417 C   0  0  0  0  0  0  0  0  0  0  0  0
    2.4096   -2.5383   -3.7391 C   0  0  0  0  0  0  0  0  0  0  0  0
  1  2  1  0
  2  3  1  0
  3  4  1  0
  4  5  2  0
  4  6  1  0
  6  7  1  0
  7  8  1  0
  8  9  1  0
  9 10  1  0
 10 11  1  0
 10 12  1  0
 12 13  2  0
 12 14  1  0
 14 15  1  0
 15 16  2  0
 16 17  1  0
 17 18  2  0
 18 19  1  0
 19 20  1  0
 20 21  1  0
 21 22  1  0
 21 23  1  0
 21 24  1  0
 24 25  1  0
  8 26  1  0
 26 27  1  0
 26 28  1  0
 25 15  1  0
 25 19  2  0
M  END
>  <target>  (530) 
-4.71

$$$$

     RDKit          3D

 17 19  0  0  0  0  0  0  0  0999 V2000
    0.0487   -1.3533   -1.1516 O   0  0  0  0  0  0  0  0  0  0  0  0
   -1.0315   -0.8539   -0.4713 C   0  0  0  0  0  0  0  0  0  0  0  0
   -2.0317   -1.7793   -0.1475 C   0  0  0  0  0  0  0  0  0  0  0  0
   -3.2079   -1.3522    0.4587 C   0  0  0  0  0  0  0  0  0  0  0  0
   -3.3893    0.0010    0.7208 C   0  0  0  0  0  0  0  0  0  0  0  0
   -2.3941    0.9242    0.3773 C   0  0  0  0  0  0  0  0  0  0  0  0
   -1.1880    0.5149   -0.2192 C   0  0  0  0  0  0  0  0  0  0  0  0
   -0.1976    1.4793   -0.5916 N   0  0  0  0  0  0  0  0  0  0  0  0
   -0.6364    2.8498   -0.8414 C   0  0  0  0  0  0  0  0  0  0  0  0
    1.1875    1.2568   -0.6349 C   0  0  0  0  0  0  0  0  0  0  0  0
    1.9866    2.1426   -0.9527 O   0  0  0  0  0  0  0  0  0  0  0  0
    1.7833   -0.0147   -0.1875 C   0  0  0  0  0  0  0  0  0  0  0  0
    3.0188    0.0023    0.4717 C   0  0  0  0  0  0  0  0  0  0  0  0
    3.6156   -1.1958    0.8562 C   0  0  0  0  0  0  0  0  0  0  0  0
    2.9611   -2.3774    0.5535 C   0  0  0  0  0  0  0  0  0  0  0  0
    1.7780   -2.4317   -0.0936 N   0  0  0  0  0  0  0  0  0  0  0  0
    1.2141   -1.2460   -0.4424 C   0  0  0  0  0  0  0  0  0  0  0  0
  1  2  1  0
  2  3  2  0
  3  4  1  0
  4  5  2  0
  5  6  1  0
  6  7  2  0
  7  8  1  0
  8  9  1  0
  8 10  1  0
 10 11  2  0
 10 12  1  0
 12 13  2  0
 13 14  1  0
 14 15  2  0
 15 16  1  0
 16 17  2  0
  7  2  1  0
 17  1  1  0
 17 12  1  0
M  END
>  <target>  (531) 
-3.6719999999999997

$$$$

     RDKit          3D

 13 15  0  0  0  0  0  0  0  0999 V2000
    0.0246   -1.7942    0.1228 C   0  0  0  0  0  0  0  0  0  0  0  0
    1.1888   -0.8260    0.0659 C   0  0  0  0  0  0  0  0  0  0  0  0
    2.5433   -1.1136    0.0963 C   0  0  0  0  0  0  0  0  0  0  0  0
    3.4407   -0.0459    0.0305 C   0  0  0  0  0  0  0  0  0  0  0  0
    2.9782    1.2780   -0.0636 C   0  0  0  0  0  0  0  0  0  0  0  0
    1.6083    1.5595   -0.0938 C   0  0  0  0  0  0  0  0  0  0  0  0
    0.7172    0.5017   -0.0286 C   0  0  0  0  0  0  0  0  0  0  0  0
   -0.7306    0.4811   -0.0387 C   0  0  0  0  0  0  0  0  0  0  0  0
   -1.6504    1.5132   -0.1165 C   0  0  0  0  0  0  0  0  0  0  0  0
   -3.0120    1.1930   -0.1055 C   0  0  0  0  0  0  0  0  0  0  0  0
   -3.4381   -0.1436   -0.0176 C   0  0  0  0  0  0  0  0  0  0  0  0
   -2.5117   -1.1853    0.0610 C   0  0  0  0  0  0  0  0  0  0  0  0
   -1.1657   -0.8595    0.0494 C   0  0  0  0  0  0  0  0  0  0  0  0
  1  2  1  0
  2  3  2  0
  3  4  1  0
  4  5  2  0
  5  6  1  0
  6  7  2  0
  7  8  1  0
  8  9  2  0
  9 10  1  0
 10 11  2  0
 11 12  1  0
 12 13  2  0
 13  1  1  0
  7  2  1  0
 13  8  1  0
M  END
>  <target>  (532) 
-5.0

$$$$

     RDKit          3D

  7  7  0  0  0  0  0  0  0  0999 V2000
   -2.2189   -0.5746   -0.8104 C   0  0  0  0  0  0  0  0  0  0  0  0
   -1.0017   -0.2171    0.0404 C   0  0  0  0  0  0  0  0  0  0  0  0
   -0.4561    1.1639   -0.3474 C   0  0  0  0  0  0  0  0  0  0  0  0
    0.7940    1.5213    0.4533 C   0  0  0  0  0  0  0  0  0  0  0  0
    1.8699    0.4472    0.3267 C   0  0  0  0  0  0  0  0  0  0  0  0
    1.3356   -0.9298    0.7086 C   0  0  0  0  0  0  0  0  0  0  0  0
    0.0864   -1.2913   -0.0917 C   0  0  0  0  0  0  0  0  0  0  0  0
  1  2  1  0
  2  3  1  0
  3  4  1  0
  4  5  1  0
  5  6  1  0
  6  7  1  0
  7  2  1  0
M  END
>  <target>  (533) 
-3.85

$$$$

     RDKit          3D

 14 14  0  0  0  0  0  0  0  0999 V2000
   -2.7475   -0.6949    1.2738 N   0  0  0  0  0  0  0  0  0  0  0  0
   -2.8856    0.3632    0.4594 C   0  0  0  0  0  0  0  0  0  0  0  0
   -3.5343    1.4298    0.7252 N   0  0  0  0  0  0  0  0  0  0  0  0
   -2.2979    0.2948   -0.7818 N   0  0  0  0  0  0  0  0  0  0  0  0
   -1.2904   -0.8492   -1.4274 S   0  0  0  0  0  0  0  0  0  0  0  0
   -1.2450   -0.6244   -2.8558 O   0  0  0  0  0  0  0  0  0  0  0  0
   -1.6580   -2.1386   -0.8744 O   0  0  0  0  0  0  0  0  0  0  0  0
    0.2808   -0.3795   -0.7476 C   0  0  0  0  0  0  0  0  0  0  0  0
    0.7553   -0.9976    0.4104 C   0  0  0  0  0  0  0  0  0  0  0  0
    2.0060   -0.6365    0.9195 C   0  0  0  0  0  0  0  0  0  0  0  0
    2.7719    0.3574    0.3015 C   0  0  0  0  0  0  0  0  0  0  0  0
    4.0701    0.6240    0.7487 N   0  0  0  0  0  0  0  0  0  0  0  0
    2.3136    0.9131   -0.8973 C   0  0  0  0  0  0  0  0  0  0  0  0
    1.0647    0.5624   -1.4173 C   0  0  0  0  0  0  0  0  0  0  0  0
  1  2  1  0
  2  3  2  0
  2  4  1  0
  4  5  1  0
  5  6  2  0
  5  7  2  0
  5  8  1  0
  8  9  2  0
  9 10  1  0
 10 11  2  0
 11 12  1  0
 11 13  1  0
 13 14  2  0
 14  8  1  0
M  END
>  <target>  (534) 
-1.99

$$$$

     RDKit          3D

 11 11  0  0  0  0  0  0  0  0999 V2000
   -3.6917    0.0389   -0.3196 C   0  0  0  0  0  0  0  0  0  0  0  0
   -2.3146   -0.3364   -0.2691 O   0  0  0  0  0  0  0  0  0  0  0  0
   -1.4636    0.7102   -0.1270 C   0  0  0  0  0  0  0  0  0  0  0  0
   -1.7844    1.8855   -0.0444 O   0  0  0  0  0  0  0  0  0  0  0  0
   -0.0519    0.2399   -0.0826 C   0  0  0  0  0  0  0  0  0  0  0  0
    0.2941   -1.1153   -0.1793 C   0  0  0  0  0  0  0  0  0  0  0  0
    1.6364   -1.5001   -0.1317 C   0  0  0  0  0  0  0  0  0  0  0  0
    2.6277   -0.5356    0.0117 C   0  0  0  0  0  0  0  0  0  0  0  0
    3.9222   -0.9595    0.0530 O   0  0  0  0  0  0  0  0  0  0  0  0
    2.3032    0.8135    0.1092 C   0  0  0  0  0  0  0  0  0  0  0  0
    0.9611    1.2005    0.0618 C   0  0  0  0  0  0  0  0  0  0  0  0
  1  2  1  0
  2  3  1  0
  3  4  2  0
  3  5  1  0
  5  6  2  0
  6  7  1  0
  7  8  2  0
  8  9  1  0
  8 10  1  0
 10 11  2  0
 11  5  1  0
M  END
>  <target>  (535) 
-1.827

$$$$

     RDKit          3D

  6  6  0  0  0  0  0  0  0  0999 V2000
    2.0094    0.3915    0.4689 C   0  0  0  0  0  0  0  0  0  0  0  0
    0.6842    0.3571   -0.2673 C   0  0  0  0  0  0  0  0  0  0  0  0
   -0.0064   -0.9945   -0.2095 C   0  0  0  0  0  0  0  0  0  0  0  0
   -1.4509   -0.6018   -0.3927 C   0  0  0  0  0  0  0  0  0  0  0  0
   -1.5259    0.6901    0.3933 C   0  0  0  0  0  0  0  0  0  0  0  0
   -0.2274    1.2981    0.3244 O   0  0  0  0  0  0  0  0  0  0  0  0
  1  2  1  0
  2  3  1  0
  3  4  1  0
  4  5  1  0
  5  6  1  0
  6  2  1  0
M  END
>  <target>  (536) 
0.11

$$$$

     RDKit          3D

 18 20  0  0  0  0  0  0  0  0999 V2000
    3.9040   -0.7194   -0.5936 C   0  0  0  0  0  0  0  0  0  0  0  0
    2.8399    0.2501   -0.1119 C   0  0  0  0  0  0  0  0  0  0  0  0
    1.4936    0.1914   -0.8342 C   0  0  0  0  0  0  0  0  0  0  0  0
    1.0598   -1.2262   -1.2277 C   0  0  0  0  0  0  0  0  0  0  0  0
   -0.4353   -1.2944   -1.5227 C   0  0  0  0  0  0  0  0  0  0  0  0
   -1.3050   -0.8278   -0.3334 C   0  0  0  0  0  0  0  0  0  0  0  0
   -1.1790   -1.7928    0.8654 C   0  0  0  0  0  0  0  0  0  0  0  0
   -2.7520   -0.9080   -0.7771 C   0  0  0  0  0  0  0  0  0  0  0  0
   -3.6346    0.0879   -0.6607 C   0  0  0  0  0  0  0  0  0  0  0  0
   -3.2353    1.3868   -0.0935 C   0  0  0  0  0  0  0  0  0  0  0  0
   -4.0777    2.2642    0.0622 O   0  0  0  0  0  0  0  0  0  0  0  0
   -1.7874    1.5999    0.2267 C   0  0  0  0  0  0  0  0  0  0  0  0
   -0.8908    0.5925    0.0737 C   0  0  0  0  0  0  0  0  0  0  0  0
    0.6012    0.8246    0.2291 C   0  0  0  0  0  0  0  0  0  0  0  0
    1.0836    0.2949    1.4635 O   0  0  0  0  0  0  0  0  0  0  0  0
    2.4148    0.0052    1.3191 C   0  0  0  0  0  0  0  0  0  0  0  0
    3.1332   -0.3751    2.2278 O   0  0  0  0  0  0  0  0  0  0  0  0
   -1.4843    2.9919    0.7138 C   0  0  0  0  0  0  0  0  0  0  0  0
  1  2  1  0
  2  3  1  0
  3  4  1  0
  4  5  1  0
  5  6  1  0
  6  7  1  0
  6  8  1  0
  8  9  2  0
  9 10  1  0
 10 11  2  0
 10 12  1  0
 12 13  2  0
 13 14  1  0
 14 15  1  0
 15 16  1  0
 16 17  2  0
 12 18  1  0
 13  6  1  0
 14  3  1  0
 16  2  1  0
M  END
>  <target>  (537) 
-3.09

$$$$

     RDKit          3D

 20 21  0  0  0  0  0  0  0  0999 V2000
    1.3532   -3.2267   -1.2970 O   0  0  0  0  0  0  0  0  0  0  0  0
    2.4014   -2.2633   -1.4362 C   0  0  0  0  0  0  0  0  0  0  0  0
    2.1817   -1.1267   -0.4327 C   0  0  0  0  0  0  0  0  0  0  0  0
    0.8705   -0.5839   -0.6790 O   0  0  0  0  0  0  0  0  0  0  0  0
    0.5180    0.4021    0.2948 C   0  0  0  0  0  0  0  0  0  0  0  0
   -0.7997    0.9170    0.0491 O   0  0  0  0  0  0  0  0  0  0  0  0
   -1.8760    0.1114    0.3117 C   0  0  0  0  0  0  0  0  0  0  0  0
   -1.7993   -1.2223    0.7247 C   0  0  0  0  0  0  0  0  0  0  0  0
   -2.9627   -1.9648    0.9417 C   0  0  0  0  0  0  0  0  0  0  0  0
   -4.2110   -1.3843    0.7427 C   0  0  0  0  0  0  0  0  0  0  0  0
   -4.2994   -0.0569    0.3291 C   0  0  0  0  0  0  0  0  0  0  0  0
   -3.1385    0.7056    0.1191 C   0  0  0  0  0  0  0  0  0  0  0  0
   -3.2721    2.1357   -0.3421 C   0  0  0  0  0  0  0  0  0  0  0  0
   -3.0106    2.2541   -1.7343 O   0  0  0  0  0  0  0  0  0  0  0  0
    1.4762    1.6081    0.1833 C   0  0  0  0  0  0  0  0  0  0  0  0
    1.2013    2.5865    1.2008 O   0  0  0  0  0  0  0  0  0  0  0  0
    2.9282    1.1541    0.3335 C   0  0  0  0  0  0  0  0  0  0  0  0
    3.1718    0.7575    1.6988 O   0  0  0  0  0  0  0  0  0  0  0  0
    3.2492   -0.0329   -0.5809 C   0  0  0  0  0  0  0  0  0  0  0  0
    4.5437   -0.5416   -0.2559 O   0  0  0  0  0  0  0  0  0  0  0  0
  1  2  1  0
  2  3  1  0
  3  4  1  0
  4  5  1  0
  5  6  1  0
  6  7  1  0
  7  8  2  0
  8  9  1  0
  9 10  2  0
 10 11  1  0
 11 12  2  0
 12 13  1  0
 13 14  1  0
  5 15  1  0
 15 16  1  0
 15 17  1  0
 17 18  1  0
 17 19  1  0
 19 20  1  0
 12  7  1  0
 19  3  1  0
M  END
>  <target>  (538) 
-0.85

$$$$

     RDKit          3D

  4  3  0  0  0  0  0  0  0  0999 V2000
   -1.3033   -0.0471    0.5863 C   0  0  0  0  0  0  0  0  0  0  0  0
    0.0767   -0.5714    0.2198 C   0  0  0  0  0  0  0  0  0  0  0  0
    1.0289    0.5700   -0.1298 C   0  0  0  0  0  0  0  0  0  0  0  0
    2.9611   -0.1887   -0.6414 I   0  0  0  0  0  0  0  0  0  0  0  0
  1  2  1  0
  2  3  1  0
  3  4  1  0
M  END
>  <target>  (539) 
-2.29

$$$$

     RDKit          3D

 15 15  0  0  0  0  0  0  0  0999 V2000
    4.9954   -1.4126    1.6357 C   0  0  0  0  0  0  0  0  0  0  0  0
    3.8335   -0.4463    1.4661 C   0  0  0  0  0  0  0  0  0  0  0  0
    2.8021   -1.0725    0.6584 N   0  0  0  0  0  0  0  0  0  0  0  0
    1.6501   -0.3130    0.4872 C   0  0  0  0  0  0  0  0  0  0  0  0
    0.5251   -1.0048    0.3709 N   0  0  0  0  0  0  0  0  0  0  0  0
   -0.5807   -0.2969    0.1915 C   0  0  0  0  0  0  0  0  0  0  0  0
   -1.7472   -1.0360    0.0734 N   0  0  0  0  0  0  0  0  0  0  0  0
   -2.8058   -0.4992   -0.7719 C   0  0  0  0  0  0  0  0  0  0  0  0
   -2.4436   -0.6346   -2.2509 C   0  0  0  0  0  0  0  0  0  0  0  0
   -4.0893   -1.2750   -0.4734 C   0  0  0  0  0  0  0  0  0  0  0  0
   -0.6176    1.0238    0.1307 N   0  0  0  0  0  0  0  0  0  0  0  0
    0.5575    1.6246    0.2661 C   0  0  0  0  0  0  0  0  0  0  0  0
    0.6248    3.4029    0.2012 S   0  0  0  0  0  0  0  0  0  0  0  0
   -1.1410    3.7963    0.2222 C   0  0  0  0  0  0  0  0  0  0  0  0
    1.7180    1.0069    0.4449 N   0  0  0  0  0  0  0  0  0  0  0  0
  1  2  1  0
  2  3  1  0
  3  4  1  0
  4  5  2  0
  5  6  1  0
  6  7  1  0
  7  8  1  0
  8  9  1  0
  8 10  1  0
  6 11  2  0
 11 12  1  0
 12 13  1  0
 13 14  1  0
 12 15  2  0
 15  4  1  0
M  END
>  <target>  (540) 
-3.04

$$$$

     RDKit          3D

  4  3  0  0  0  0  0  0  0  0999 V2000
   -1.5656   -0.0003    0.0246 C   0  0  0  0  0  0  0  0  0  0  0  0
   -0.1944   -0.2697   -0.5684 C   0  0  0  0  0  0  0  0  0  0  0  0
    0.9224    0.1780    0.3622 C   0  0  0  0  0  0  0  0  0  0  0  0
    2.1724   -0.1026   -0.2523 O   0  0  0  0  0  0  0  0  0  0  0  0
  1  2  1  0
  2  3  1  0
  3  4  1  0
M  END
>  <target>  (541) 
0.62

$$$$

     RDKit          3D

 24 27  0  0  0  0  0  0  0  0999 V2000
    5.5430    0.3750   -0.3626 C   0  0  0  0  0  0  0  0  0  0  0  0
    4.3920    1.2848   -0.0304 C   0  0  0  0  0  0  0  0  0  0  0  0
    4.4008    2.4685   -0.3894 O   0  0  0  0  0  0  0  0  0  0  0  0
    3.1971    0.7505    0.7794 C   0  0  0  0  0  0  0  0  0  0  0  0
    2.8998    1.7792    1.7435 O   0  0  0  0  0  0  0  0  0  0  0  0
    3.4159   -0.5548    1.5780 C   0  0  0  0  0  0  0  0  0  0  0  0
    2.0572   -1.2885    1.5923 C   0  0  0  0  0  0  0  0  0  0  0  0
    1.0773   -0.2957    0.9743 C   0  0  0  0  0  0  0  0  0  0  0  0
   -0.2500   -0.8207    0.4134 C   0  0  0  0  0  0  0  0  0  0  0  0
   -1.0449   -1.5803    1.4840 C   0  0  0  0  0  0  0  0  0  0  0  0
   -2.3839   -2.0617    0.9413 C   0  0  0  0  0  0  0  0  0  0  0  0
   -3.1977   -0.9291    0.3616 C   0  0  0  0  0  0  0  0  0  0  0  0
   -4.4744   -0.7629    0.7505 C   0  0  0  0  0  0  0  0  0  0  0  0
   -5.3499    0.2583    0.1330 C   0  0  0  0  0  0  0  0  0  0  0  0
   -6.4909    0.4144    0.5597 O   0  0  0  0  0  0  0  0  0  0  0  0
   -4.8251    1.0085   -1.0613 C   0  0  0  0  0  0  0  0  0  0  0  0
   -3.3324    1.2600   -0.9102 C   0  0  0  0  0  0  0  0  0  0  0  0
   -2.4974   -0.0334   -0.6693 C   0  0  0  0  0  0  0  0  0  0  0  0
   -2.3929   -0.8152   -1.9978 C   0  0  0  0  0  0  0  0  0  0  0  0
   -1.0822    0.3879   -0.1177 C   0  0  0  0  0  0  0  0  0  0  0  0
   -0.2603    1.2651   -1.0995 C   0  0  0  0  0  0  0  0  0  0  0  0
    1.1179    1.6704   -0.5467 C   0  0  0  0  0  0  0  0  0  0  0  0
    1.9315    0.4515   -0.0771 C   0  0  0  0  0  0  0  0  0  0  0  0
    2.3008   -0.4256   -1.3028 C   0  0  0  0  0  0  0  0  0  0  0  0
  1  2  1  0
  2  3  2  0
  2  4  1  0
  4  5  1  0
  4  6  1  0
  6  7  1  0
  7  8  1  0
  8  9  1  0
  9 10  1  0
 10 11  1  0
 11 12  1  0
 12 13  2  0
 13 14  1  0
 14 15  2  0
 14 16  1  0
 16 17  1  0
 17 18  1  0
 18 19  1  0
 18 20  1  0
 20 21  1  0
 21 22  1  0
 22 23  1  0
 23 24  1  0
 23  4  1  0
 23  8  1  0
 20  9  1  0
 18 12  1  0
M  END
>  <target>  (542) 
-3.8169999999999997

$$$$

     RDKit          3D

  6  5  0  0  0  0  0  0  0  0999 V2000
   -2.5910    0.2145    0.5378 C   0  0  0  0  0  0  0  0  0  0  0  0
   -1.3780   -0.4779   -0.0641 C   0  0  0  0  0  0  0  0  0  0  0  0
   -0.0981    0.3289    0.1737 C   0  0  0  0  0  0  0  0  0  0  0  0
    1.1393   -0.3716   -0.3950 C   0  0  0  0  0  0  0  0  0  0  0  0
    2.4078    0.4110   -0.0828 C   0  0  0  0  0  0  0  0  0  0  0  0
    1.0046   -0.4840   -1.8090 O   0  0  0  0  0  0  0  0  0  0  0  0
  1  2  1  0
  2  3  1  0
  3  4  1  0
  4  5  1  0
  4  6  1  0
M  END
>  <target>  (543) 
-0.29

$$$$

     RDKit          3D

 16 17  0  0  0  0  0  0  0  0999 V2000
    1.0526   -2.0812    2.2966 O   0  0  0  0  0  0  0  0  0  0  0  0
    0.2896   -1.0916    1.6019 C   0  0  0  0  0  0  0  0  0  0  0  0
   -0.5362   -1.7514    0.4867 C   0  0  0  0  0  0  0  0  0  0  0  0
   -0.5004   -2.9757    0.3278 O   0  0  0  0  0  0  0  0  0  0  0  0
   -1.4064   -0.9215   -0.3984 C   0  0  0  0  0  0  0  0  0  0  0  0
   -1.8321   -1.4770   -1.6132 C   0  0  0  0  0  0  0  0  0  0  0  0
   -2.6364   -0.7395   -2.4838 C   0  0  0  0  0  0  0  0  0  0  0  0
   -3.0244    0.5548   -2.1444 C   0  0  0  0  0  0  0  0  0  0  0  0
   -2.6160    1.1095   -0.9326 C   0  0  0  0  0  0  0  0  0  0  0  0
   -1.8142    0.3729   -0.0567 C   0  0  0  0  0  0  0  0  0  0  0  0
    1.2593   -0.0412    1.1085 C   0  0  0  0  0  0  0  0  0  0  0  0
    1.3003    1.2247    1.7134 C   0  0  0  0  0  0  0  0  0  0  0  0
    2.1716    2.2089    1.2437 C   0  0  0  0  0  0  0  0  0  0  0  0
    3.0236    1.9353    0.1760 C   0  0  0  0  0  0  0  0  0  0  0  0
    3.0135    0.6746   -0.4166 C   0  0  0  0  0  0  0  0  0  0  0  0
    2.1418   -0.3104    0.0499 C   0  0  0  0  0  0  0  0  0  0  0  0
  1  2  1  0
  2  3  1  0
  3  4  2  0
  3  5  1  0
  5  6  2  0
  6  7  1  0
  7  8  2  0
  8  9  1  0
  9 10  2  0
  2 11  1  0
 11 12  2  0
 12 13  1  0
 13 14  2  0
 14 15  1  0
 15 16  2  0
 10  5  1  0
 16 11  1  0
M  END
>  <target>  (544) 
-2.85

$$$$

     RDKit          3D

  9  9  0  0  0  0  0  0  0  0999 V2000
    2.7921   -0.4084   -0.3409 C   0  0  0  0  0  0  0  0  0  0  0  0
    1.3643    0.0279   -0.1926 C   0  0  0  0  0  0  0  0  0  0  0  0
    1.0411    1.3880   -0.1318 C   0  0  0  0  0  0  0  0  0  0  0  0
   -0.2838    1.7927    0.0380 C   0  0  0  0  0  0  0  0  0  0  0  0
   -1.2884    0.8344    0.1580 C   0  0  0  0  0  0  0  0  0  0  0  0
   -2.5895    1.2179    0.3259 O   0  0  0  0  0  0  0  0  0  0  0  0
   -0.9919   -0.5305    0.1146 C   0  0  0  0  0  0  0  0  0  0  0  0
   -2.0759   -1.5592    0.2538 C   0  0  0  0  0  0  0  0  0  0  0  0
    0.3437   -0.9239   -0.0557 C   0  0  0  0  0  0  0  0  0  0  0  0
  1  2  1  0
  2  3  2  0
  3  4  1  0
  4  5  2  0
  5  6  1  0
  5  7  1  0
  7  8  1  0
  7  9  2  0
  9  2  1  0
M  END
>  <target>  (545) 
-1.19

$$$$

     RDKit          3D

 10 10  0  0  0  0  0  0  0  0999 V2000
   -2.5215   -2.1700   -0.4337 Cl  0  0  0  0  0  0  0  0  0  0  0  0
   -1.3851   -0.9083   -0.1557 C   0  0  0  0  0  0  0  0  0  0  0  0
   -1.8372    0.3500    0.2460 C   0  0  0  0  0  0  0  0  0  0  0  0
   -0.9240    1.3812    0.4745 C   0  0  0  0  0  0  0  0  0  0  0  0
    0.4421    1.1533    0.3010 C   0  0  0  0  0  0  0  0  0  0  0  0
    0.8857   -0.1148   -0.1029 C   0  0  0  0  0  0  0  0  0  0  0  0
   -0.0253   -1.1532   -0.3336 C   0  0  0  0  0  0  0  0  0  0  0  0
    2.3217   -0.3567   -0.2860 N   0  0  0  0  0  0  0  0  0  0  0  0
    3.0965    0.5863   -0.0724 O   0  0  0  0  0  0  0  0  0  0  0  0
    2.6739   -1.4894   -0.6433 O   0  0  0  0  0  0  0  0  0  0  0  0
  1  2  1  0
  2  3  2  0
  3  4  1  0
  4  5  2  0
  5  6  1  0
  6  7  2  0
  6  8  1  0
  8  9  1  0
  8 10  2  0
  7  2  1  0
M  CHG  2   8   1   9  -1
M  END
>  <target>  (546) 
-2.77

$$$$

     RDKit          3D

 15 16  0  0  0  0  0  0  0  0999 V2000
   -3.2987    0.6205   -1.0466 C   0  0  0  0  0  0  0  0  0  0  0  0
   -2.1131    0.3928   -0.1663 C   0  0  0  0  0  0  0  0  0  0  0  0
   -2.0619    0.6281    1.1547 C   0  0  0  0  0  0  0  0  0  0  0  0
   -2.9686    1.1360    2.0545 N   0  0  0  0  0  0  0  0  0  0  0  0
   -0.6604    0.2501    1.5652 C   0  0  0  0  0  0  0  0  0  0  0  0
   -0.2464    0.4186    2.7038 O   0  0  0  0  0  0  0  0  0  0  0  0
   -0.0100   -0.1906    0.4061 N   0  0  0  0  0  0  0  0  0  0  0  0
    1.3948   -0.1795    0.2007 C   0  0  0  0  0  0  0  0  0  0  0  0
    2.2781   -0.3438    1.2765 C   0  0  0  0  0  0  0  0  0  0  0  0
    3.6632   -0.3391    1.0801 C   0  0  0  0  0  0  0  0  0  0  0  0
    4.1878   -0.1649   -0.1970 C   0  0  0  0  0  0  0  0  0  0  0  0
    3.3280    0.0080   -1.2773 C   0  0  0  0  0  0  0  0  0  0  0  0
    1.9435    0.0013   -1.0786 C   0  0  0  0  0  0  0  0  0  0  0  0
   -0.9248   -0.1421   -0.6893 N   0  0  0  0  0  0  0  0  0  0  0  0
   -1.0168   -1.4128   -1.4305 C   0  0  0  0  0  0  0  0  0  0  0  0
  1  2  1  0
  2  3  2  0
  3  4  1  0
  3  5  1  0
  5  6  2  0
  5  7  1  0
  7  8  1  0
  8  9  2  0
  9 10  1  0
 10 11  2  0
 11 12  1  0
 12 13  2  0
  7 14  1  0
 14 15  1  0
 13  8  1  0
 14  2  1  0
M  END
>  <target>  (547) 
-0.624

$$$$

     RDKit          3D

 16 17  0  0  0  0  0  0  0  0999 V2000
   -5.2348   -0.0435   -0.4396 Cl  0  0  0  0  0  0  0  0  0  0  0  0
   -3.5214   -0.0365   -0.2869 C   0  0  0  0  0  0  0  0  0  0  0  0
   -2.8188    1.1537   -0.4543 C   0  0  0  0  0  0  0  0  0  0  0  0
   -1.4271    1.1612   -0.3316 C   0  0  0  0  0  0  0  0  0  0  0  0
   -0.7210   -0.0200   -0.0386 C   0  0  0  0  0  0  0  0  0  0  0  0
   -1.4558   -1.2115    0.1233 C   0  0  0  0  0  0  0  0  0  0  0  0
   -0.6743   -2.7160    0.4730 Cl  0  0  0  0  0  0  0  0  0  0  0  0
   -2.8483   -1.2200    0.0005 C   0  0  0  0  0  0  0  0  0  0  0  0
    0.7452    0.0322    0.0852 C   0  0  0  0  0  0  0  0  0  0  0  0
    1.5366   -0.1349   -1.0668 C   0  0  0  0  0  0  0  0  0  0  0  0
    2.9291   -0.0950   -0.9861 C   0  0  0  0  0  0  0  0  0  0  0  0
    3.8723   -0.3026   -2.4095 Cl  0  0  0  0  0  0  0  0  0  0  0  0
    3.5609    0.1131    0.2366 C   0  0  0  0  0  0  0  0  0  0  0  0
    2.7937    0.2835    1.3894 C   0  0  0  0  0  0  0  0  0  0  0  0
    1.3968    0.2446    1.3161 C   0  0  0  0  0  0  0  0  0  0  0  0
    0.5111    0.4730    2.7846 Cl  0  0  0  0  0  0  0  0  0  0  0  0
  1  2  1  0
  2  3  2  0
  3  4  1  0
  4  5  2  0
  5  6  1  0
  6  7  1  0
  6  8  2  0
  5  9  1  0
  9 10  2  0
 10 11  1  0
 11 12  1  0
 11 13  2  0
 13 14  1  0
 14 15  2  0
 15 16  1  0
  8  2  1  0
 15  9  1  0
M  END
>  <target>  (548) 
-6.57

$$$$

     RDKit          3D

 10  9  0  0  0  0  0  0  0  0999 V2000
   -2.8097    1.7503    0.0784 Cl  0  0  0  0  0  0  0  0  0  0  0  0
   -1.5977    0.5343   -0.1723 C   0  0  0  0  0  0  0  0  0  0  0  0
   -0.4883    0.4387    0.5853 C   0  0  0  0  0  0  0  0  0  0  0  0
   -0.1698    1.5436    1.8982 Cl  0  0  0  0  0  0  0  0  0  0  0  0
    0.5506   -0.5621    0.3927 C   0  0  0  0  0  0  0  0  0  0  0  0
    1.5549   -0.4498   -0.4976 C   0  0  0  0  0  0  0  0  0  0  0  0
    2.7695   -1.6707   -0.7093 Cl  0  0  0  0  0  0  0  0  0  0  0  0
    1.7280    0.9474   -1.5184 Cl  0  0  0  0  0  0  0  0  0  0  0  0
    0.3815   -1.9625    1.4204 Cl  0  0  0  0  0  0  0  0  0  0  0  0
   -1.9190   -0.5692   -1.4773 Cl  0  0  0  0  0  0  0  0  0  0  0  0
  1  2  1  0
  2  3  2  3
  3  4  1  0
  3  5  1  0
  5  6  2  3
  6  7  1  0
  6  8  1  0
  5  9  1  0
  2 10  1  0
M  END
>  <target>  (549) 
-4.92

$$$$

     RDKit          3D

 16 16  0  0  0  0  0  0  0  0999 V2000
    4.8609   -2.6586    0.0053 C   0  0  0  0  0  0  0  0  0  0  0  0
    3.5699   -1.9167   -0.3034 C   0  0  0  0  0  0  0  0  0  0  0  0
    3.1842   -1.1237    0.8499 N   0  0  0  0  0  0  0  0  0  0  0  0
    2.0543   -0.3353    0.6590 C   0  0  0  0  0  0  0  0  0  0  0  0
    1.0485   -0.7733   -0.0870 N   0  0  0  0  0  0  0  0  0  0  0  0
    0.0051    0.0350   -0.2037 C   0  0  0  0  0  0  0  0  0  0  0  0
   -1.0175   -0.4540   -0.9939 N   0  0  0  0  0  0  0  0  0  0  0  0
   -2.4254   -0.1194   -0.7611 C   0  0  0  0  0  0  0  0  0  0  0  0
   -2.8433   -0.3924    0.6910 C   0  0  0  0  0  0  0  0  0  0  0  0
   -3.2523   -1.0422   -1.6820 C   0  0  0  0  0  0  0  0  0  0  0  0
   -2.7284    1.3315   -1.1616 C   0  0  0  0  0  0  0  0  0  0  0  0
   -0.0749    1.2228    0.3681 N   0  0  0  0  0  0  0  0  0  0  0  0
    0.9813    1.5738    1.0912 C   0  0  0  0  0  0  0  0  0  0  0  0
    0.9834    3.1605    1.9004 S   0  0  0  0  0  0  0  0  0  0  0  0
   -0.7102    3.7014    1.5689 C   0  0  0  0  0  0  0  0  0  0  0  0
    2.0707    0.8360    1.2680 N   0  0  0  0  0  0  0  0  0  0  0  0
  1  2  1  0
  2  3  1  0
  3  4  1  0
  4  5  2  0
  5  6  1  0
  6  7  1  0
  7  8  1  0
  8  9  1  0
  8 10  1  0
  8 11  1  0
  6 12  2  0
 12 13  1  0
 13 14  1  0
 14 15  1  0
 13 16  2  0
 16  4  1  0
M  END
>  <target>  (550) 
-4.0

$$$$

     RDKit          3D

  7  6  0  0  0  0  0  0  0  0999 V2000
   -2.7934   -0.1904    0.0588 C   0  0  0  0  0  0  0  0  0  0  0  0
   -1.4635    0.0044    0.7739 C   0  0  0  0  0  0  0  0  0  0  0  0
   -0.2329   -0.1417   -0.1455 C   0  0  0  0  0  0  0  0  0  0  0  0
   -0.2105    0.9376   -1.2321 C   0  0  0  0  0  0  0  0  0  0  0  0
    1.0456   -0.1058    0.7155 C   0  0  0  0  0  0  0  0  0  0  0  0
    2.3228   -0.4157   -0.0567 C   0  0  0  0  0  0  0  0  0  0  0  0
    3.4069   -0.4776    0.8622 O   0  0  0  0  0  0  0  0  0  0  0  0
  1  2  1  0
  2  3  1  0
  3  4  1  0
  3  5  1  0
  5  6  1  0
  6  7  1  0
M  END
>  <target>  (551) 
-0.71

$$$$

     RDKit          3D

 11 12  0  0  0  0  0  0  0  0999 V2000
    3.1833    0.4215   -0.1418 C   0  0  0  0  0  0  0  0  0  0  0  0
    1.7596    0.0154    0.0775 C   0  0  0  0  0  0  0  0  0  0  0  0
    1.5298   -1.1279    0.7384 N   0  0  0  0  0  0  0  0  0  0  0  0
    0.2311   -1.4387    0.9370 C   0  0  0  0  0  0  0  0  0  0  0  0
   -0.8370   -0.6779    0.5241 C   0  0  0  0  0  0  0  0  0  0  0  0
   -2.1289   -1.0406    0.7518 N   0  0  0  0  0  0  0  0  0  0  0  0
   -3.0614   -0.1881    0.2867 C   0  0  0  0  0  0  0  0  0  0  0  0
   -2.7142    0.9703   -0.3736 C   0  0  0  0  0  0  0  0  0  0  0  0
   -1.4262    1.3209   -0.5944 N   0  0  0  0  0  0  0  0  0  0  0  0
   -0.4685    0.4990   -0.1476 C   0  0  0  0  0  0  0  0  0  0  0  0
    0.8009    0.8428   -0.3640 N   0  0  0  0  0  0  0  0  0  0  0  0
  1  2  1  0
  2  3  2  0
  3  4  1  0
  4  5  2  0
  5  6  1  0
  6  7  2  0
  7  8  1  0
  8  9  2  0
  9 10  1  0
 10 11  2  0
 10  5  1  0
 11  2  1  0
M  END
>  <target>  (552) 
-0.12

$$$$

     RDKit          3D

 25 29  0  0  0  0  0  0  0  0999 V2000
   -2.3858   -1.4579   -1.0595 C   0  0  0  0  0  0  0  0  0  0  0  0
   -2.0689   -0.1351   -0.3175 C   0  0  0  0  0  0  0  0  0  0  0  0
   -2.6755    1.0496   -1.1786 C   0  0  0  0  0  0  0  0  0  0  0  0
   -4.0522    1.4101   -0.7689 C   0  0  0  0  0  0  0  0  0  0  0  0
   -5.0738    2.1281   -1.4052 C   0  0  0  0  0  0  0  0  0  0  0  0
   -6.1510    2.2468   -0.6256 N   0  0  0  0  0  0  0  0  0  0  0  0
   -5.8246    1.5938    0.5560 O   0  0  0  0  0  0  0  0  0  0  0  0
   -4.5600    1.0821    0.4686 C   0  0  0  0  0  0  0  0  0  0  0  0
   -3.8725    0.3325    1.4470 C   0  0  0  0  0  0  0  0  0  0  0  0
   -2.7065   -0.2545    1.0999 C   0  0  0  0  0  0  0  0  0  0  0  0
   -1.9909   -1.1396    2.0907 C   0  0  0  0  0  0  0  0  0  0  0  0
   -0.5153   -0.7833    2.1961 C   0  0  0  0  0  0  0  0  0  0  0  0
    0.1762   -0.8427    0.8257 C   0  0  0  0  0  0  0  0  0  0  0  0
   -0.5152    0.1124   -0.1796 C   0  0  0  0  0  0  0  0  0  0  0  0
    0.2275    0.0803   -1.5304 C   0  0  0  0  0  0  0  0  0  0  0  0
    1.7130    0.4098   -1.3793 C   0  0  0  0  0  0  0  0  0  0  0  0
    2.4582   -0.5225   -0.3876 C   0  0  0  0  0  0  0  0  0  0  0  0
    2.6150   -1.9259   -1.0067 C   0  0  0  0  0  0  0  0  0  0  0  0
    1.6953   -0.5911    0.9594 C   0  0  0  0  0  0  0  0  0  0  0  0
    2.0932    0.7095    1.6829 C   0  0  0  0  0  0  0  0  0  0  0  0
    3.4455    1.1419    1.1006 C   0  0  0  0  0  0  0  0  0  0  0  0
    3.8263    0.0656    0.0747 C   0  0  0  0  0  0  0  0  0  0  0  0
    4.5804   -0.9346    0.7657 O   0  0  0  0  0  0  0  0  0  0  0  0
    4.6570    0.6022   -1.0148 C   0  0  0  0  0  0  0  0  0  0  0  0
    5.3439    1.0359   -1.8999 C   0  0  0  0  0  0  0  0  0  0  0  0
  1  2  1  0
  2  3  1  0
  3  4  1  0
  4  5  1  0
  5  6  2  0
  6  7  1  0
  7  8  1  0
  8  9  1  0
  9 10  2  0
 10 11  1  0
 11 12  1  0
 12 13  1  0
 13 14  1  0
 14 15  1  0
 15 16  1  0
 16 17  1  0
 17 18  1  0
 17 19  1  0
 19 20  1  0
 20 21  1  0
 21 22  1  0
 22 23  1  0
 22 24  1  0
 24 25  3  0
  8  4  2  0
 10  2  1  0
 14  2  1  0
 19 13  1  0
 22 17  1  0
M  END
>  <target>  (553) 
-5.507000000000001

$$$$

     RDKit          3D

  5  4  0  0  0  0  0  0  0  0999 V2000
   -1.9496    0.3623    0.0238 C   0  0  0  0  0  0  0  0  0  0  0  0
   -0.6727   -0.4103   -0.2664 C   0  0  0  0  0  0  0  0  0  0  0  0
    0.5632    0.3451    0.2238 C   0  0  0  0  0  0  0  0  0  0  0  0
    1.8413   -0.4385   -0.0719 C   0  0  0  0  0  0  0  0  0  0  0  0
    3.5593    0.6303    0.6191 I   0  0  0  0  0  0  0  0  0  0  0  0
  1  2  1  0
  2  3  1  0
  3  4  1  0
  4  5  1  0
M  END
>  <target>  (554) 
-2.96

$$$$

     RDKit          3D

 11 12  0  0  0  0  0  0  0  0999 V2000
   -4.0445    1.5757    0.0094 Br  0  0  0  0  0  0  0  0  0  0  0  0
   -2.3962    0.6495   -0.0270 C   0  0  0  0  0  0  0  0  0  0  0  0
   -2.3862   -0.7330   -0.1852 C   0  0  0  0  0  0  0  0  0  0  0  0
   -1.1690   -1.4163   -0.2120 C   0  0  0  0  0  0  0  0  0  0  0  0
    0.0456   -0.7234   -0.0811 C   0  0  0  0  0  0  0  0  0  0  0  0
    1.2775   -1.3966   -0.1061 C   0  0  0  0  0  0  0  0  0  0  0  0
    2.4767   -0.6946    0.0253 C   0  0  0  0  0  0  0  0  0  0  0  0
    2.4602    0.6881    0.1832 C   0  0  0  0  0  0  0  0  0  0  0  0
    1.2443    1.3731    0.2102 C   0  0  0  0  0  0  0  0  0  0  0  0
    0.0286    0.6825    0.0795 C   0  0  0  0  0  0  0  0  0  0  0  0
   -1.2022    1.3579    0.1048 C   0  0  0  0  0  0  0  0  0  0  0  0
  1  2  1  0
  2  3  2  0
  3  4  1  0
  4  5  2  0
  5  6  1  0
  6  7  2  0
  7  8  1  0
  8  9  2  0
  9 10  1  0
 10 11  2  0
 11  2  1  0
 10  5  1  0
M  END
>  <target>  (555) 
-4.4

$$$$

     RDKit          3D

 55 62  0  0  0  0  0  0  0  0999 V2000
   -7.2848    0.5013    4.3050 C   0  0  0  0  0  0  0  0  0  0  0  0
   -6.7394    1.2435    3.0874 C   0  0  0  0  0  0  0  0  0  0  0  0
   -7.6962    1.0480    2.0329 O   0  0  0  0  0  0  0  0  0  0  0  0
   -7.6160    2.0095    0.9846 C   0  0  0  0  0  0  0  0  0  0  0  0
   -7.9760    3.4055    1.4973 C   0  0  0  0  0  0  0  0  0  0  0  0
   -7.6355    3.5853    2.9718 C   0  0  0  0  0  0  0  0  0  0  0  0
   -7.3690    4.9660    3.2404 O   0  0  0  0  0  0  0  0  0  0  0  0
   -6.4295    2.7325    3.3619 C   0  0  0  0  0  0  0  0  0  0  0  0
   -6.0799    3.0038    4.7232 O   0  0  0  0  0  0  0  0  0  0  0  0
   -6.3007    2.0298    0.4274 O   0  0  0  0  0  0  0  0  0  0  0  0
   -6.0740    0.9616   -0.5060 C   0  0  0  0  0  0  0  0  0  0  0  0
   -6.3003    1.4666   -1.9435 C   0  0  0  0  0  0  0  0  0  0  0  0
   -7.6873    1.7503   -2.1568 O   0  0  0  0  0  0  0  0  0  0  0  0
   -5.8478    0.4276   -2.9569 C   0  0  0  0  0  0  0  0  0  0  0  0
   -4.4111   -0.0005   -2.6920 C   0  0  0  0  0  0  0  0  0  0  0  0
   -4.2906   -0.5090   -1.3694 O   0  0  0  0  0  0  0  0  0  0  0  0
   -4.6339    0.4300   -0.3414 C   0  0  0  0  0  0  0  0  0  0  0  0
   -3.5654    1.5190   -0.2153 C   0  0  0  0  0  0  0  0  0  0  0  0
   -4.1026   -1.0179   -3.6470 O   0  0  0  0  0  0  0  0  0  0  0  0
   -2.7076   -1.3640   -3.6913 C   0  0  0  0  0  0  0  0  0  0  0  0
   -2.5665   -2.7106   -4.4129 C   0  0  0  0  0  0  0  0  0  0  0  0
   -3.3863   -3.7109   -3.8003 O   0  0  0  0  0  0  0  0  0  0  0  0
   -1.1173   -3.1874   -4.4174 C   0  0  0  0  0  0  0  0  0  0  0  0
   -0.1236   -2.0263   -4.3882 C   0  0  0  0  0  0  0  0  0  0  0  0
    0.2110   -1.7211   -3.0369 O   0  0  0  0  0  0  0  0  0  0  0  0
    1.4101   -0.9497   -2.9002 C   0  0  0  0  0  0  0  0  0  0  0  0
    2.6306   -1.8686   -2.8283 C   0  0  0  0  0  0  0  0  0  0  0  0
    2.5832   -2.7670   -1.5931 C   0  0  0  0  0  0  0  0  0  0  0  0
    2.4695   -1.9935   -0.2467 C   0  0  0  0  0  0  0  0  0  0  0  0
    2.1752   -3.0638    0.8376 C   0  0  0  0  0  0  0  0  0  0  0  0
    1.2540   -1.0114   -0.3390 C   0  0  0  0  0  0  0  0  0  0  0  0
    1.1221   -0.1268    0.9115 C   0  0  0  0  0  0  0  0  0  0  0  0
    2.4014    0.6328    1.2467 C   0  0  0  0  0  0  0  0  0  0  0  0
    3.6120   -0.3056    1.3789 C   0  0  0  0  0  0  0  0  0  0  0  0
    3.7826   -1.1848    0.0947 C   0  0  0  0  0  0  0  0  0  0  0  0
    5.0653   -2.0642    0.1675 C   0  0  0  0  0  0  0  0  0  0  0  0
    6.3455   -1.3046    0.5823 C   0  0  0  0  0  0  0  0  0  0  0  0
    6.7376   -0.4439   -0.4901 O   0  0  0  0  0  0  0  0  0  0  0  0
    6.1296   -0.4873    1.8733 C   0  0  0  0  0  0  0  0  0  0  0  0
    5.9435   -1.4868    3.0537 C   0  0  0  0  0  0  0  0  0  0  0  0
    7.2217    0.5653    2.2447 C   0  0  0  0  0  0  0  0  0  0  0  0
    6.4600    1.5283    3.2032 C   0  0  0  0  0  0  0  0  0  0  0  0
    4.9539    1.3516    2.9098 C   0  0  0  0  0  0  0  0  0  0  0  0
    4.9141    0.4662    1.6650 C   0  0  0  0  0  0  0  0  0  0  0  0
    5.1328    1.3727    0.5647 O   0  0  0  0  0  0  0  0  0  0  0  0
    8.5402    0.0420    2.7411 C   0  0  0  0  0  0  0  0  0  0  0  0
    9.0205   -0.0037    3.9839 C   0  0  0  0  0  0  0  0  0  0  0  0
   10.3707   -0.5578    3.9085 C   0  0  0  0  0  0  0  0  0  0  0  0
   11.0941   -0.7577    4.8662 O   0  0  0  0  0  0  0  0  0  0  0  0
   10.6758   -0.8132    2.6097 O   0  0  0  0  0  0  0  0  0  0  0  0
    9.5659   -0.4520    1.7891 C   0  0  0  0  0  0  0  0  0  0  0  0
    1.2880   -0.1327   -1.6125 C   0  0  0  0  0  0  0  0  0  0  0  0
   -0.6620   -0.8924   -5.0574 O   0  0  0  0  0  0  0  0  0  0  0  0
   -1.8254   -0.3236   -4.4288 C   0  0  0  0  0  0  0  0  0  0  0  0
   -2.5580    0.4276   -5.5412 C   0  0  0  0  0  0  0  0  0  0  0  0
  1  2  1  0
  2  3  1  0
  3  4  1  0
  4  5  1  0
  5  6  1  0
  6  7  1  0
  6  8  1  0
  8  9  1  0
  4 10  1  0
 10 11  1  0
 11 12  1  0
 12 13  1  0
 12 14  1  0
 14 15  1  0
 15 16  1  0
 16 17  1  0
 17 18  1  0
 15 19  1  0
 19 20  1  0
 20 21  1  0
 21 22  1  0
 21 23  1  0
 23 24  1  0
 24 25  1  0
 25 26  1  0
 26 27  1  0
 27 28  1  0
 28 29  1  0
 29 30  1  0
 29 31  1  0
 31 32  1  0
 32 33  1  0
 33 34  1  0
 34 35  1  0
 35 36  1  0
 36 37  1  0
 37 38  1  0
 37 39  1  0
 39 40  1  0
 39 41  1  0
 41 42  1  0
 42 43  1  0
 43 44  1  0
 44 45  1  0
 41 46  1  0
 46 47  2  0
 47 48  1  0
 48 49  2  0
 48 50  1  0
 50 51  1  0
 31 52  1  0
 24 53  1  0
 53 54  1  0
 54 55  1  0
  8  2  1  0
 17 11  1  0
 35 29  1  0
 44 34  1  0
 44 39  1  0
 51 46  1  0
 52 26  1  0
 54 20  1  0
M  END
>  <target>  (556) 
-4.081

$$$$

     RDKit          3D

 10 10  0  0  0  0  0  0  0  0999 V2000
    2.6811    0.0452   -1.3151 F   0  0  0  0  0  0  0  0  0  0  0  0
    2.1902   -0.2096   -0.0707 C   0  0  0  0  0  0  0  0  0  0  0  0
    2.6270   -1.4591    0.2542 F   0  0  0  0  0  0  0  0  0  0  0  0
    2.8446    0.6404    0.7699 F   0  0  0  0  0  0  0  0  0  0  0  0
    0.6897   -0.0701   -0.0055 C   0  0  0  0  0  0  0  0  0  0  0  0
    0.1004    1.1684    0.2939 C   0  0  0  0  0  0  0  0  0  0  0  0
   -1.2885    1.3012    0.3332 C   0  0  0  0  0  0  0  0  0  0  0  0
   -2.1022    0.2013    0.0675 C   0  0  0  0  0  0  0  0  0  0  0  0
   -1.5303   -1.0320   -0.2399 C   0  0  0  0  0  0  0  0  0  0  0  0
   -0.1417   -1.1675   -0.2798 C   0  0  0  0  0  0  0  0  0  0  0  0
  1  2  1  0
  2  3  1  0
  2  4  1  0
  2  5  1  0
  5  6  2  0
  6  7  1  0
  7  8  2  0
  8  9  1  0
  9 10  2  0
 10  5  1  0
M  END
>  <target>  (557) 
-2.51

$$$$

     RDKit          3D

 24 24  0  0  0  0  0  0  0  0999 V2000
   -4.5519    0.9945   -4.3671 C   0  0  0  0  0  0  0  0  0  0  0  0
   -3.7384    0.7746   -3.1006 C   0  0  0  0  0  0  0  0  0  0  0  0
   -4.6052    0.2148   -1.9720 C   0  0  0  0  0  0  0  0  0  0  0  0
   -3.8591    0.0817   -0.6410 C   0  0  0  0  0  0  0  0  0  0  0  0
   -2.7330   -0.9568   -0.6777 C   0  0  0  0  0  0  0  0  0  0  0  0
   -2.1066   -1.1719    0.6981 C   0  0  0  0  0  0  0  0  0  0  0  0
   -1.4994    0.0517    1.1302 O   0  0  0  0  0  0  0  0  0  0  0  0
   -0.9079   -0.0266    2.3468 C   0  0  0  0  0  0  0  0  0  0  0  0
   -0.8710   -0.9953    3.0847 O   0  0  0  0  0  0  0  0  0  0  0  0
   -0.2824    1.2737    2.6543 C   0  0  0  0  0  0  0  0  0  0  0  0
   -1.0494    2.4432    2.5297 C   0  0  0  0  0  0  0  0  0  0  0  0
   -0.5114    3.6768    2.9010 C   0  0  0  0  0  0  0  0  0  0  0  0
    0.7858    3.7489    3.4073 C   0  0  0  0  0  0  0  0  0  0  0  0
    1.5541    2.5896    3.5306 C   0  0  0  0  0  0  0  0  0  0  0  0
    1.0282    1.3484    3.1414 C   0  0  0  0  0  0  0  0  0  0  0  0
    1.9197    0.1753    3.2475 C   0  0  0  0  0  0  0  0  0  0  0  0
    2.6904   -0.0067    4.1748 O   0  0  0  0  0  0  0  0  0  0  0  0
    1.8187   -0.5632    2.1177 O   0  0  0  0  0  0  0  0  0  0  0  0
    2.6362   -1.7381    2.1011 C   0  0  0  0  0  0  0  0  0  0  0  0
    2.2476   -2.5974    0.9000 C   0  0  0  0  0  0  0  0  0  0  0  0
    2.2950   -1.8723   -0.4496 C   0  0  0  0  0  0  0  0  0  0  0  0
    3.6915   -1.3690   -0.8190 C   0  0  0  0  0  0  0  0  0  0  0  0
    3.7059   -0.7556   -2.2197 C   0  0  0  0  0  0  0  0  0  0  0  0
    5.0900   -0.2480   -2.5914 C   0  0  0  0  0  0  0  0  0  0  0  0
  1  2  1  0
  2  3  1  0
  3  4  1  0
  4  5  1  0
  5  6  1  0
  6  7  1  0
  7  8  1  0
  8  9  2  0
  8 10  1  0
 10 11  2  0
 11 12  1  0
 12 13  2  0
 13 14  1  0
 14 15  2  0
 15 16  1  0
 16 17  2  0
 16 18  1  0
 18 19  1  0
 19 20  1  0
 20 21  1  0
 21 22  1  0
 22 23  1  0
 23 24  1  0
 15 10  1  0
M  END
>  <target>  (558) 
-6.144

$$$$

     RDKit          3D

 13 15  0  0  0  0  0  0  0  0999 V2000
    3.4853   -0.5058   -0.0891 C   0  0  0  0  0  0  0  0  0  0  0  0
    3.0904    0.8221   -0.0328 C   0  0  0  0  0  0  0  0  0  0  0  0
    1.7321    1.1508    0.0067 C   0  0  0  0  0  0  0  0  0  0  0  0
    0.7373    0.1375   -0.0100 C   0  0  0  0  0  0  0  0  0  0  0  0
    1.1650   -1.1894   -0.0669 C   0  0  0  0  0  0  0  0  0  0  0  0
    2.5333   -1.5266   -0.1069 C   0  0  0  0  0  0  0  0  0  0  0  0
   -0.1605   -2.2776   -0.0795 S   0  0  0  0  0  0  0  0  0  0  0  0
   -1.3205   -1.0162   -0.0101 C   0  0  0  0  0  0  0  0  0  0  0  0
   -2.7227   -1.1603    0.0131 C   0  0  0  0  0  0  0  0  0  0  0  0
   -3.5222   -0.0175    0.0708 C   0  0  0  0  0  0  0  0  0  0  0  0
   -2.9449    1.2427    0.1049 C   0  0  0  0  0  0  0  0  0  0  0  0
   -1.5537    1.3798    0.0817 C   0  0  0  0  0  0  0  0  0  0  0  0
   -0.7108    0.2384    0.0231 C   0  0  0  0  0  0  0  0  0  0  0  0
  1  2  2  0
  2  3  1  0
  3  4  2  0
  4  5  1  0
  5  6  2  0
  5  7  1  0
  7  8  1  0
  8  9  2  0
  9 10  1  0
 10 11  2  0
 11 12  1  0
 12 13  2  0
  6  1  1  0
 13  4  1  0
 13  8  1  0
M  END
>  <target>  (559) 
-4.38

$$$$

     RDKit          3D

 17 18  0  0  0  0  0  0  0  0999 V2000
    5.2586    0.4663    0.1549 Cl  0  0  0  0  0  0  0  0  0  0  0  0
    3.5464    0.3121    0.0992 C   0  0  0  0  0  0  0  0  0  0  0  0
    2.7458    1.4304    0.3158 C   0  0  0  0  0  0  0  0  0  0  0  0
    1.3548    1.3082    0.2694 C   0  0  0  0  0  0  0  0  0  0  0  0
    0.7475    0.0663    0.0078 C   0  0  0  0  0  0  0  0  0  0  0  0
    1.5809   -1.0493   -0.2107 C   0  0  0  0  0  0  0  0  0  0  0  0
    0.9240   -2.6142   -0.5516 Cl  0  0  0  0  0  0  0  0  0  0  0  0
    2.9724   -0.9277   -0.1646 C   0  0  0  0  0  0  0  0  0  0  0  0
   -0.7235   -0.0220   -0.0308 C   0  0  0  0  0  0  0  0  0  0  0  0
   -1.3780    0.2067   -1.2532 C   0  0  0  0  0  0  0  0  0  0  0  0
   -2.7665    0.1279   -1.3469 C   0  0  0  0  0  0  0  0  0  0  0  0
   -3.5296   -0.1794   -0.2190 C   0  0  0  0  0  0  0  0  0  0  0  0
   -5.2456   -0.2534   -0.4293 Cl  0  0  0  0  0  0  0  0  0  0  0  0
   -2.9071   -0.4100    1.0167 C   0  0  0  0  0  0  0  0  0  0  0  0
   -3.8675   -0.7855    2.4166 Cl  0  0  0  0  0  0  0  0  0  0  0  0
   -1.5033   -0.3300    1.1087 C   0  0  0  0  0  0  0  0  0  0  0  0
   -0.7021   -0.6027    2.6323 Cl  0  0  0  0  0  0  0  0  0  0  0  0
  1  2  1  0
  2  3  2  0
  3  4  1  0
  4  5  2  0
  5  6  1  0
  6  7  1  0
  6  8  2  0
  5  9  1  0
  9 10  2  0
 10 11  1  0
 11 12  2  0
 12 13  1  0
 12 14  1  0
 14 15  1  0
 14 16  2  0
 16 17  1  0
  8  2  1  0
 16  9  1  0
M  END
>  <target>  (560) 
-7.8

$$$$

     RDKit          3D

 18 19  0  0  0  0  0  0  0  0999 V2000
   -5.2801    0.1843    0.1616 Cl  0  0  0  0  0  0  0  0  0  0  0  0
   -3.5499    0.1939    0.1490 C   0  0  0  0  0  0  0  0  0  0  0  0
   -2.9108   -1.0423    0.0364 C   0  0  0  0  0  0  0  0  0  0  0  0
   -1.5187   -1.1131    0.0170 C   0  0  0  0  0  0  0  0  0  0  0  0
   -0.7367    0.0506    0.1124 C   0  0  0  0  0  0  0  0  0  0  0  0
   -1.3913    1.3003    0.2230 C   0  0  0  0  0  0  0  0  0  0  0  0
   -0.4289    2.7495    0.3283 Cl  0  0  0  0  0  0  0  0  0  0  0  0
   -2.7982    1.3744    0.2423 C   0  0  0  0  0  0  0  0  0  0  0  0
   -3.6032    2.9096    0.3743 Cl  0  0  0  0  0  0  0  0  0  0  0  0
    0.7334   -0.0820    0.0943 C   0  0  0  0  0  0  0  0  0  0  0  0
    1.3969   -0.0505   -1.1440 C   0  0  0  0  0  0  0  0  0  0  0  0
    2.7845   -0.1647   -1.2146 C   0  0  0  0  0  0  0  0  0  0  0  0
    3.5372   -0.3154   -0.0483 C   0  0  0  0  0  0  0  0  0  0  0  0
    5.2520   -0.4524   -0.2337 Cl  0  0  0  0  0  0  0  0  0  0  0  0
    2.9050   -0.3544    1.2031 C   0  0  0  0  0  0  0  0  0  0  0  0
    3.8501   -0.5502    2.6490 Cl  0  0  0  0  0  0  0  0  0  0  0  0
    1.5025   -0.2382    1.2719 C   0  0  0  0  0  0  0  0  0  0  0  0
    0.6861   -0.2917    2.8108 Cl  0  0  0  0  0  0  0  0  0  0  0  0
  1  2  1  0
  2  3  2  0
  3  4  1  0
  4  5  2  0
  5  6  1  0
  6  7  1  0
  6  8  2  0
  8  9  1  0
  5 10  1  0
 10 11  2  0
 11 12  1  0
 12 13  2  0
 13 14  1  0
 13 15  1  0
 15 16  1  0
 15 17  2  0
 17 18  1  0
  8  2  1  0
 17 10  1  0
M  END
>  <target>  (561) 
-8.01

$$$$

     RDKit          3D

 23 25  0  0  0  0  0  0  0  0999 V2000
   -0.7039    2.6259   -3.5781 C   0  0  0  0  0  0  0  0  0  0  0  0
   -0.6558    1.3544   -2.7728 C   0  0  0  0  0  0  0  0  0  0  0  0
   -0.0374    0.3655   -3.1738 O   0  0  0  0  0  0  0  0  0  0  0  0
   -1.4339    1.3500   -1.4682 C   0  0  0  0  0  0  0  0  0  0  0  0
   -1.1296    0.0958   -0.6245 C   0  0  0  0  0  0  0  0  0  0  0  0
   -2.1736   -0.2274    0.4476 C   0  0  0  0  0  0  0  0  0  0  0  0
   -2.9582    0.7536    1.0710 C   0  0  0  0  0  0  0  0  0  0  0  0
   -3.8891    0.4054    2.0531 C   0  0  0  0  0  0  0  0  0  0  0  0
   -4.0468   -0.9261    2.4296 C   0  0  0  0  0  0  0  0  0  0  0  0
   -3.2701   -1.9124    1.8288 C   0  0  0  0  0  0  0  0  0  0  0  0
   -2.3396   -1.5664    0.8478 C   0  0  0  0  0  0  0  0  0  0  0  0
    0.2899    0.0808   -0.0610 C   0  0  0  0  0  0  0  0  0  0  0  0
    1.2526   -0.7469   -0.5078 C   0  0  0  0  0  0  0  0  0  0  0  0
    1.1035   -1.5560   -1.6169 O   0  0  0  0  0  0  0  0  0  0  0  0
    2.5370   -0.8581    0.1781 C   0  0  0  0  0  0  0  0  0  0  0  0
    3.5495   -1.7386   -0.2199 C   0  0  0  0  0  0  0  0  0  0  0  0
    4.7469   -1.8166    0.4995 C   0  0  0  0  0  0  0  0  0  0  0  0
    4.9434   -1.0154    1.6246 C   0  0  0  0  0  0  0  0  0  0  0  0
    3.9441   -0.1343    2.0299 C   0  0  0  0  0  0  0  0  0  0  0  0
    2.7572   -0.0695    1.3006 C   0  0  0  0  0  0  0  0  0  0  0  0
    1.7887    0.8476    1.7360 O   0  0  0  0  0  0  0  0  0  0  0  0
    0.6010    1.0291    1.0421 C   0  0  0  0  0  0  0  0  0  0  0  0
   -0.1394    1.9688    1.3158 O   0  0  0  0  0  0  0  0  0  0  0  0
  1  2  1  0
  2  3  2  0
  2  4  1  0
  4  5  1  0
  5  6  1  0
  6  7  2  0
  7  8  1  0
  8  9  2  0
  9 10  1  0
 10 11  2  0
  5 12  1  0
 12 13  2  0
 13 14  1  0
 13 15  1  0
 15 16  2  0
 16 17  1  0
 17 18  2  0
 18 19  1  0
 19 20  2  0
 20 21  1  0
 21 22  1  0
 22 23  2  0
 11  6  1  0
 20 15  1  0
 22 12  1  0
M  END
>  <target>  (562) 
-3.8930000000000002

$$$$

     RDKit          3D

 16 17  0  0  0  0  0  0  0  0999 V2000
   -2.6811   -0.7746    0.0113 C   0  0  0  0  0  0  0  0  0  0  0  0
   -3.3974   -0.5288    1.1842 C   0  0  0  0  0  0  0  0  0  0  0  0
   -3.1122    0.5972    1.9535 C   0  0  0  0  0  0  0  0  0  0  0  0
   -2.1154    1.4815    1.5481 C   0  0  0  0  0  0  0  0  0  0  0  0
   -1.4035    1.2404    0.3721 C   0  0  0  0  0  0  0  0  0  0  0  0
   -1.6742    0.1066   -0.4106 C   0  0  0  0  0  0  0  0  0  0  0  0
   -0.8456   -0.1727   -1.6474 C   0  0  0  0  0  0  0  0  0  0  0  0
   -1.6676   -0.8007   -2.6479 O   0  0  0  0  0  0  0  0  0  0  0  0
    0.3738   -1.0909   -1.3588 C   0  0  0  0  0  0  0  0  0  0  0  0
    0.9208   -1.5236   -2.6229 O   0  0  0  0  0  0  0  0  0  0  0  0
    1.4613   -0.4269   -0.5407 C   0  0  0  0  0  0  0  0  0  0  0  0
    1.5934   -0.7259    0.8235 C   0  0  0  0  0  0  0  0  0  0  0  0
    2.5623   -0.0881    1.5990 C   0  0  0  0  0  0  0  0  0  0  0  0
    3.4130    0.8511    1.0201 C   0  0  0  0  0  0  0  0  0  0  0  0
    3.2938    1.1572   -0.3339 C   0  0  0  0  0  0  0  0  0  0  0  0
    2.3217    0.5251   -1.1103 C   0  0  0  0  0  0  0  0  0  0  0  0
  1  2  2  0
  2  3  1  0
  3  4  2  0
  4  5  1  0
  5  6  2  0
  6  7  1  0
  7  8  1  0
  7  9  1  0
  9 10  1  0
  9 11  1  0
 11 12  2  0
 12 13  1  0
 13 14  2  0
 14 15  1  0
 15 16  2  0
  6  1  1  0
 16 11  1  0
M  END
>  <target>  (563) 
-1.93

$$$$

     RDKit          3D

 14 14  0  0  0  0  0  0  0  0999 V2000
    2.6294   -1.7826   -0.3115 C   0  0  0  0  0  0  0  0  0  0  0  0
    1.6203   -0.9102    0.1975 O   0  0  0  0  0  0  0  0  0  0  0  0
    1.4216    0.1972   -0.5574 C   0  0  0  0  0  0  0  0  0  0  0  0
    2.0414    0.5224   -1.5559 O   0  0  0  0  0  0  0  0  0  0  0  0
    0.3929    1.0437    0.0784 C   0  0  0  0  0  0  0  0  0  0  0  0
    0.6823    2.4111    0.2040 C   0  0  0  0  0  0  0  0  0  0  0  0
   -0.2135    3.2626    0.8533 C   0  0  0  0  0  0  0  0  0  0  0  0
   -1.4007    2.7560    1.3802 C   0  0  0  0  0  0  0  0  0  0  0  0
   -1.7046    1.4004    1.2411 C   0  0  0  0  0  0  0  0  0  0  0  0
   -0.8184    0.5426    0.5718 C   0  0  0  0  0  0  0  0  0  0  0  0
   -1.2435   -0.8609    0.4037 C   0  0  0  0  0  0  0  0  0  0  0  0
   -1.7749   -1.5159    1.2845 O   0  0  0  0  0  0  0  0  0  0  0  0
   -1.0438   -1.2391   -0.8819 O   0  0  0  0  0  0  0  0  0  0  0  0
   -1.4605   -2.5757   -1.1620 C   0  0  0  0  0  0  0  0  0  0  0  0
  1  2  1  0
  2  3  1  0
  3  4  2  0
  3  5  1  0
  5  6  2  0
  6  7  1  0
  7  8  2  0
  8  9  1  0
  9 10  2  0
 10 11  1  0
 11 12  2  0
 11 13  1  0
 13 14  1  0
 10  5  1  0
M  END
>  <target>  (564) 
-1.66

$$$$

     RDKit          3D

 12 11  0  0  0  0  0  0  0  0999 V2000
   -4.7702    1.7215    1.0712 C   0  0  0  0  0  0  0  0  0  0  0  0
   -4.0777    0.4475    0.6144 C   0  0  0  0  0  0  0  0  0  0  0  0
   -2.6246    0.7105    0.2199 C   0  0  0  0  0  0  0  0  0  0  0  0
   -1.9315   -0.5736   -0.2389 C   0  0  0  0  0  0  0  0  0  0  0  0
   -0.4769   -0.3103   -0.6336 C   0  0  0  0  0  0  0  0  0  0  0  0
    0.2145   -1.5972   -1.0949 C   0  0  0  0  0  0  0  0  0  0  0  0
    1.6632   -1.3604   -1.5207 C   0  0  0  0  0  0  0  0  0  0  0  0
    2.5839   -1.0747   -0.3559 C   0  0  0  0  0  0  0  0  0  0  0  0
    2.3397   -1.3205    0.8164 O   0  0  0  0  0  0  0  0  0  0  0  0
    3.7422   -0.5250   -0.8199 O   0  0  0  0  0  0  0  0  0  0  0  0
    4.7268   -0.2111    0.1759 C   0  0  0  0  0  0  0  0  0  0  0  0
    4.4680    1.1686    0.7515 C   0  0  0  0  0  0  0  0  0  0  0  0
  1  2  1  0
  2  3  1  0
  3  4  1  0
  4  5  1  0
  5  6  1  0
  6  7  1  0
  7  8  1  0
  8  9  2  0
  8 10  1  0
 10 11  1  0
 11 12  1  0
M  END
>  <target>  (565) 
-3.39

$$$$

     RDKit          3D

  6  5  0  0  0  0  0  0  0  0999 V2000
    2.7561   -0.1051   -0.6439 C   0  0  0  0  0  0  0  0  0  0  0  0
    1.8058    0.2763    0.4775 C   0  0  0  0  0  0  0  0  0  0  0  0
    0.4876    1.4076   -0.0784 S   0  0  0  0  0  0  0  0  0  0  0  0
   -0.6557    0.2282   -1.3203 S   0  0  0  0  0  0  0  0  0  0  0  0
   -1.7684   -0.6409   -0.1657 C   0  0  0  0  0  0  0  0  0  0  0  0
   -2.7753    0.2914    0.4846 C   0  0  0  0  0  0  0  0  0  0  0  0
  1  2  1  0
  2  3  1  0
  3  4  1  0
  4  5  1  0
  5  6  1  0
M  END
>  <target>  (566) 
-2.42

$$$$

     RDKit          3D

  8  7  0  0  0  0  0  0  0  0999 V2000
   -4.0203    0.0798    0.5048 C   0  0  0  0  0  0  0  0  0  0  0  0
   -2.8653    0.3327   -0.4436 C   0  0  0  0  0  0  0  0  0  0  0  0
   -1.6611   -0.0951    0.1888 O   0  0  0  0  0  0  0  0  0  0  0  0
   -0.5258    0.1140   -0.6510 C   0  0  0  0  0  0  0  0  0  0  0  0
    0.7317   -0.3576    0.0713 C   0  0  0  0  0  0  0  0  0  0  0  0
    1.8638   -0.1505   -0.7732 O   0  0  0  0  0  0  0  0  0  0  0  0
    3.0841   -0.6139   -0.1989 C   0  0  0  0  0  0  0  0  0  0  0  0
    3.6421    0.3813    0.8028 C   0  0  0  0  0  0  0  0  0  0  0  0
  1  2  1  0
  2  3  1  0
  3  4  1  0
  4  5  1  0
  5  6  1  0
  6  7  1  0
  7  8  1  0
M  END
>  <target>  (567) 
-0.77

$$$$

     RDKit          3D

 10 10  0  0  0  0  0  0  0  0999 V2000
   -2.8375    1.3085   -0.0725 Cl  0  0  0  0  0  0  0  0  0  0  0  0
   -1.2831    0.5565   -0.0315 C   0  0  0  0  0  0  0  0  0  0  0  0
   -0.1593    1.3874   -0.0501 C   0  0  0  0  0  0  0  0  0  0  0  0
    1.1235    0.8333   -0.0186 C   0  0  0  0  0  0  0  0  0  0  0  0
    2.4668    1.9187   -0.0440 Cl  0  0  0  0  0  0  0  0  0  0  0  0
    1.2831   -0.5565    0.0315 C   0  0  0  0  0  0  0  0  0  0  0  0
    2.8375   -1.3085    0.0725 Cl  0  0  0  0  0  0  0  0  0  0  0  0
    0.1593   -1.3874    0.0501 C   0  0  0  0  0  0  0  0  0  0  0  0
   -1.1235   -0.8333    0.0186 C   0  0  0  0  0  0  0  0  0  0  0  0
   -2.4668   -1.9187    0.0440 Cl  0  0  0  0  0  0  0  0  0  0  0  0
  1  2  1  0
  2  3  2  0
  3  4  1  0
  4  5  1  0
  4  6  2  0
  6  7  1  0
  6  8  1  0
  8  9  2  0
  9 10  1  0
  9  2  1  0
M  END
>  <target>  (568) 
-5.56

$$$$

     RDKit          3D

 14 15  0  0  0  0  0  0  0  0999 V2000
    4.9626   -0.4139    0.1848 N   0  0  0  0  0  0  0  0  0  0  0  0
    3.5733   -0.2774    0.0629 C   0  0  0  0  0  0  0  0  0  0  0  0
    2.7653   -1.4001   -0.1192 C   0  0  0  0  0  0  0  0  0  0  0  0
    1.3673   -1.2882   -0.1245 C   0  0  0  0  0  0  0  0  0  0  0  0
    0.7355   -0.0542    0.0938 C   0  0  0  0  0  0  0  0  0  0  0  0
    1.5568    1.0574    0.3369 C   0  0  0  0  0  0  0  0  0  0  0  0
    2.9545    0.9413    0.3430 C   0  0  0  0  0  0  0  0  0  0  0  0
   -0.7348    0.0658    0.0877 C   0  0  0  0  0  0  0  0  0  0  0  0
   -1.5380   -0.7716    0.8770 C   0  0  0  0  0  0  0  0  0  0  0  0
   -2.9356   -0.6556    0.8706 C   0  0  0  0  0  0  0  0  0  0  0  0
   -3.5738    0.2690    0.0434 C   0  0  0  0  0  0  0  0  0  0  0  0
   -4.9595    0.4601    0.1270 N   0  0  0  0  0  0  0  0  0  0  0  0
   -2.7821    1.1464   -0.6981 C   0  0  0  0  0  0  0  0  0  0  0  0
   -1.3841    1.0344   -0.6930 C   0  0  0  0  0  0  0  0  0  0  0  0
  1  2  1  0
  2  3  2  0
  3  4  1  0
  4  5  2  0
  5  6  1  0
  6  7  2  0
  5  8  1  0
  8  9  2  0
  9 10  1  0
 10 11  2  0
 11 12  1  0
 11 13  1  0
 13 14  2  0
  7  2  1  0
 14  8  1  0
M  END
>  <target>  (569) 
-2.7

$$$$

     RDKit          3D

  7  6  0  0  0  0  0  0  0  0999 V2000
    3.4362    0.0965    0.3689 C   0  0  0  0  0  0  0  0  0  0  0  0
    2.0519    0.7246    0.3951 C   0  0  0  0  0  0  0  0  0  0  0  0
    0.9837   -0.2536   -0.0932 C   0  0  0  0  0  0  0  0  0  0  0  0
   -0.4078    0.3821   -0.0652 C   0  0  0  0  0  0  0  0  0  0  0  0
   -1.4757   -0.5981   -0.5548 C   0  0  0  0  0  0  0  0  0  0  0  0
   -2.8400    0.0294   -0.5398 C   0  0  0  0  0  0  0  0  0  0  0  0
   -3.8619   -0.4136    0.2031 C   0  0  0  0  0  0  0  0  0  0  0  0
  1  2  1  0
  2  3  1  0
  3  4  1  0
  4  5  1  0
  5  6  1  0
  6  7  2  0
M  END
>  <target>  (570) 
-3.73

$$$$

     RDKit          3D

 15 15  0  0  0  0  0  0  0  0999 V2000
    5.2037   -1.2360   -0.5978 C   0  0  0  0  0  0  0  0  0  0  0  0
    4.3620   -0.1718    0.0881 C   0  0  0  0  0  0  0  0  0  0  0  0
    2.8672   -0.4478   -0.0763 C   0  0  0  0  0  0  0  0  0  0  0  0
    2.0252    0.6278    0.6159 C   0  0  0  0  0  0  0  0  0  0  0  0
    0.5504    0.3718    0.4604 C   0  0  0  0  0  0  0  0  0  0  0  0
   -0.2715    0.8988   -0.4684 C   0  0  0  0  0  0  0  0  0  0  0  0
    0.2050    1.8116   -1.5693 C   0  0  0  0  0  0  0  0  0  0  0  0
   -1.6232    0.6456   -0.5300 N   0  0  0  0  0  0  0  0  0  0  0  0
   -2.1590   -0.1292    0.3566 C   0  0  0  0  0  0  0  0  0  0  0  0
   -3.4909   -0.4320    0.3749 N   0  0  0  0  0  0  0  0  0  0  0  0
   -4.4373    0.2735   -0.4718 C   0  0  0  0  0  0  0  0  0  0  0  0
   -5.8027   -0.3859   -0.3803 C   0  0  0  0  0  0  0  0  0  0  0  0
   -1.4192   -0.7014    1.3441 N   0  0  0  0  0  0  0  0  0  0  0  0
   -0.0738   -0.5316    1.4575 C   0  0  0  0  0  0  0  0  0  0  0  0
    0.5723   -1.0983    2.3334 O   0  0  0  0  0  0  0  0  0  0  0  0
  1  2  1  0
  2  3  1  0
  3  4  1  0
  4  5  1  0
  5  6  2  0
  6  7  1  0
  6  8  1  0
  8  9  2  0
  9 10  1  0
 10 11  1  0
 11 12  1  0
  9 13  1  0
 13 14  1  0
 14 15  2  0
 14  5  1  0
M  END
>  <target>  (571) 
-3.028

$$$$

     RDKit          3D

 16 16  0  0  0  0  0  0  0  0999 V2000
   -0.8943    0.6765    2.5445 O   0  0  0  0  0  0  0  0  0  0  0  0
   -1.1571   -0.0820    1.6149 C   0  0  0  0  0  0  0  0  0  0  0  0
   -1.6086   -1.3472    1.8722 N   0  0  0  0  0  0  0  0  0  0  0  0
   -2.4694   -2.0037    1.0503 C   0  0  0  0  0  0  0  0  0  0  0  0
   -3.2400   -2.8555    1.4802 O   0  0  0  0  0  0  0  0  0  0  0  0
   -2.5069   -1.6049   -0.2487 N   0  0  0  0  0  0  0  0  0  0  0  0
   -2.1126   -0.3602   -0.6565 C   0  0  0  0  0  0  0  0  0  0  0  0
   -2.6447    0.1628   -1.6323 O   0  0  0  0  0  0  0  0  0  0  0  0
   -0.9615    0.2645    0.1365 C   0  0  0  0  0  0  0  0  0  0  0  0
   -0.9262    1.8030   -0.0668 C   0  0  0  0  0  0  0  0  0  0  0  0
   -2.1900    2.5478    0.3679 C   0  0  0  0  0  0  0  0  0  0  0  0
    0.3843   -0.4268   -0.3461 C   0  0  0  0  0  0  0  0  0  0  0  0
    0.6350   -0.2470   -1.8556 C   0  0  0  0  0  0  0  0  0  0  0  0
    1.6284    0.0465    0.4546 C   0  0  0  0  0  0  0  0  0  0  0  0
    2.8865   -0.7874    0.1833 C   0  0  0  0  0  0  0  0  0  0  0  0
    4.0309   -0.3769    1.0987 C   0  0  0  0  0  0  0  0  0  0  0  0
  1  2  2  0
  2  3  1  0
  3  4  1  0
  4  5  2  0
  4  6  1  0
  6  7  1  0
  7  8  2  0
  7  9  1  0
  9 10  1  0
 10 11  1  0
  9 12  1  0
 12 13  1  0
 12 14  1  0
 14 15  1  0
 15 16  1  0
  9  2  1  0
M  END
>  <target>  (572) 
-2.39

$$$$

     RDKit          3D

  8  8  0  0  0  0  0  0  0  0999 V2000
   -2.2119   -0.6331   -0.2517 N   0  0  0  0  0  0  0  0  0  0  0  0
   -0.8703   -0.2629   -0.0419 C   0  0  0  0  0  0  0  0  0  0  0  0
    0.1258   -1.2430   -0.1210 C   0  0  0  0  0  0  0  0  0  0  0  0
    1.4784   -0.8991   -0.0378 C   0  0  0  0  0  0  0  0  0  0  0  0
    1.8550    0.4365    0.0884 C   0  0  0  0  0  0  0  0  0  0  0  0
    0.8794    1.4317    0.1170 C   0  0  0  0  0  0  0  0  0  0  0  0
   -0.4718    1.0845    0.0331 C   0  0  0  0  0  0  0  0  0  0  0  0
   -1.6493    2.3522    0.0594 Cl  0  0  0  0  0  0  0  0  0  0  0  0
  1  2  1  0
  2  3  2  0
  3  4  1  0
  4  5  2  0
  5  6  1  0
  6  7  2  0
  7  8  1  0
  7  2  1  0
M  END
>  <target>  (573) 
-1.52

$$$$

     RDKit          3D

  9  9  0  0  0  0  0  0  0  0999 V2000
    2.6963    0.2355    0.0956 C   0  0  0  0  0  0  0  0  0  0  0  0
    1.7251   -0.8031    0.0589 O   0  0  0  0  0  0  0  0  0  0  0  0
    0.4119   -0.4227    0.0135 C   0  0  0  0  0  0  0  0  0  0  0  0
   -0.5003   -1.4826   -0.0211 C   0  0  0  0  0  0  0  0  0  0  0  0
   -1.8745   -1.2413   -0.0690 C   0  0  0  0  0  0  0  0  0  0  0  0
   -2.3460    0.0692   -0.0825 C   0  0  0  0  0  0  0  0  0  0  0  0
   -1.4384    1.1264   -0.0480 C   0  0  0  0  0  0  0  0  0  0  0  0
   -2.0218    2.7469   -0.0648 Cl  0  0  0  0  0  0  0  0  0  0  0  0
   -0.0626    0.8890   -0.0001 C   0  0  0  0  0  0  0  0  0  0  0  0
  1  2  1  0
  2  3  1  0
  3  4  2  0
  4  5  1  0
  5  6  2  0
  6  7  1  0
  7  8  1  0
  7  9  2  0
  9  3  1  0
M  END
>  <target>  (574) 
-2.78

$$$$

     RDKit          3D

 13 12  0  0  0  0  0  0  0  0999 V2000
   -4.5497    2.3048   -0.2108 C   0  0  0  0  0  0  0  0  0  0  0  0
   -3.9101    0.9694   -0.5557 C   0  0  0  0  0  0  0  0  0  0  0  0
   -2.5642    0.7954    0.1461 C   0  0  0  0  0  0  0  0  0  0  0  0
   -1.9252   -0.5500   -0.2037 C   0  0  0  0  0  0  0  0  0  0  0  0
   -0.6368   -0.7254    0.4657 N   0  0  0  0  0  0  0  0  0  0  0  0
   -0.6621   -1.3631    1.7867 C   0  0  0  0  0  0  0  0  0  0  0  0
   -0.5352   -2.8757    1.6891 C   0  0  0  0  0  0  0  0  0  0  0  0
    0.4984   -0.2616   -0.1970 C   0  0  0  0  0  0  0  0  0  0  0  0
    0.4548    0.3064   -1.2834 O   0  0  0  0  0  0  0  0  0  0  0  0
    2.0443   -0.5346    0.5985 S   0  0  0  0  0  0  0  0  0  0  0  0
    3.1538    0.2148   -0.6294 C   0  0  0  0  0  0  0  0  0  0  0  0
    4.6018    0.1026   -0.1587 C   0  0  0  0  0  0  0  0  0  0  0  0
    5.5560    0.7229   -1.1690 C   0  0  0  0  0  0  0  0  0  0  0  0
  1  2  1  0
  2  3  1  0
  3  4  1  0
  4  5  1  0
  5  6  1  0
  6  7  1  0
  5  8  1  0
  8  9  2  0
  8 10  1  0
 10 11  1  0
 11 12  1  0
 12 13  1  0
M  END
>  <target>  (575) 
-3.53

$$$$

     RDKit          3D

  7  6  0  0  0  0  0  0  0  0999 V2000
   -2.6927   -0.0955    0.5442 C   0  0  0  0  0  0  0  0  0  0  0  0
   -1.4400   -0.2718   -0.2989 C   0  0  0  0  0  0  0  0  0  0  0  0
   -0.1875    0.1454    0.4664 C   0  0  0  0  0  0  0  0  0  0  0  0
    1.0717   -0.0299   -0.3756 C   0  0  0  0  0  0  0  0  0  0  0  0
    2.1957    0.3823    0.4136 O   0  0  0  0  0  0  0  0  0  0  0  0
    3.3874    0.2751   -0.2242 C   0  0  0  0  0  0  0  0  0  0  0  0
    3.5718   -0.1249   -1.3621 O   0  0  0  0  0  0  0  0  0  0  0  0
  1  2  1  0
  2  3  1  0
  3  4  1  0
  4  5  1  0
  5  6  1  0
  6  7  2  0
M  END
>  <target>  (576) 
-1.37

$$$$

     RDKit          3D

 26 29  0  0  0  0  0  0  0  0999 V2000
    2.1394    0.4838    1.9245 C   0  0  0  0  0  0  0  0  0  0  0  0
    1.8260   -0.1940    0.5763 C   0  0  0  0  0  0  0  0  0  0  0  0
    1.4116    0.8711   -0.4602 C   0  0  0  0  0  0  0  0  0  0  0  0
    0.0335    1.5030   -0.2086 C   0  0  0  0  0  0  0  0  0  0  0  0
   -0.1834    2.4205   -1.2757 O   0  0  0  0  0  0  0  0  0  0  0  0
   -1.1012    0.4393   -0.1447 C   0  0  0  0  0  0  0  0  0  0  0  0
   -0.7110   -0.6299    0.9256 C   0  0  0  0  0  0  0  0  0  0  0  0
   -1.7659   -1.7406    1.0391 C   0  0  0  0  0  0  0  0  0  0  0  0
   -3.1338   -1.1691    1.3779 C   0  0  0  0  0  0  0  0  0  0  0  0
   -3.5373   -0.1631    0.3335 C   0  0  0  0  0  0  0  0  0  0  0  0
   -4.6793   -0.3471   -0.3549 C   0  0  0  0  0  0  0  0  0  0  0  0
   -5.1092    0.5734   -1.4254 C   0  0  0  0  0  0  0  0  0  0  0  0
   -6.1733    0.4225   -2.0120 O   0  0  0  0  0  0  0  0  0  0  0  0
   -4.1906    1.6743   -1.7619 C   0  0  0  0  0  0  0  0  0  0  0  0
   -3.0536    1.8601   -1.0772 C   0  0  0  0  0  0  0  0  0  0  0  0
   -2.5683    1.0134    0.0985 C   0  0  0  0  0  0  0  0  0  0  0  0
   -2.6205    1.9428    1.3337 C   0  0  0  0  0  0  0  0  0  0  0  0
    0.6951   -1.2371    0.7290 C   0  0  0  0  0  0  0  0  0  0  0  0
    0.8615   -2.1540   -0.4954 C   0  0  0  0  0  0  0  0  0  0  0  0
    2.3383   -2.0664   -0.9112 C   0  0  0  0  0  0  0  0  0  0  0  0
    2.9984   -1.0974    0.0774 C   0  0  0  0  0  0  0  0  0  0  0  0
    3.4774   -1.9107    1.1687 O   0  0  0  0  0  0  0  0  0  0  0  0
    4.2321   -0.3288   -0.4320 C   0  0  0  0  0  0  0  0  0  0  0  0
    5.0783    0.0859    0.3734 O   0  0  0  0  0  0  0  0  0  0  0  0
    4.4257   -0.1085   -1.9251 C   0  0  0  0  0  0  0  0  0  0  0  0
    5.4610    0.8308   -2.1815 O   0  0  0  0  0  0  0  0  0  0  0  0
  1  2  1  0
  2  3  1  0
  3  4  1  0
  4  5  1  0
  4  6  1  0
  6  7  1  0
  7  8  1  0
  8  9  1  0
  9 10  1  0
 10 11  2  0
 11 12  1  0
 12 13  2  0
 12 14  1  0
 14 15  2  0
 15 16  1  0
 16 17  1  0
  7 18  1  0
 18 19  1  0
 19 20  1  0
 20 21  1  0
 21 22  1  0
 21 23  1  0
 23 24  2  0
 23 25  1  0
 25 26  1  0
 21  2  1  0
 18  2  1  0
 16  6  1  0
 16 10  1  0
M  END
>  <target>  (577) 
-3.18

$$$$

     RDKit          3D

  4  3  0  0  0  0  0  0  0  0999 V2000
    1.8214   -0.1189   -0.3551 Br  0  0  0  0  0  0  0  0  0  0  0  0
   -0.0542   -0.0005    0.1264 C   0  0  0  0  0  0  0  0  0  0  0  0
   -0.9327   -1.3763   -0.5454 Cl  0  0  0  0  0  0  0  0  0  0  0  0
   -0.7229    1.5306   -0.4432 Cl  0  0  0  0  0  0  0  0  0  0  0  0
  1  2  1  0
  2  3  1  0
  2  4  1  0
M  END
>  <target>  (578) 
-1.54

$$$$

     RDKit          3D

 22 25  0  0  0  0  0  0  0  0999 V2000
   -3.3426   -1.1617    0.9553 C   0  0  0  0  0  0  0  0  0  0  0  0
   -2.7218   -0.6226   -0.3332 C   0  0  0  0  0  0  0  0  0  0  0  0
   -1.8098   -1.6541   -0.9983 C   0  0  0  0  0  0  0  0  0  0  0  0
   -0.4547   -1.6961   -0.3363 C   0  0  0  0  0  0  0  0  0  0  0  0
    0.0136   -2.7671    0.0399 O   0  0  0  0  0  0  0  0  0  0  0  0
    0.2920   -0.3634   -0.2523 C   0  0  0  0  0  0  0  0  0  0  0  0
   -0.6135    0.6530    0.4823 C   0  0  0  0  0  0  0  0  0  0  0  0
    0.0546    2.0366    0.5307 C   0  0  0  0  0  0  0  0  0  0  0  0
    1.4335    1.9767    1.1715 C   0  0  0  0  0  0  0  0  0  0  0  0
    2.3154    0.9679    0.4756 C   0  0  0  0  0  0  0  0  0  0  0  0
    3.5344    1.3341    0.0420 C   0  0  0  0  0  0  0  0  0  0  0  0
    4.4816    0.3511   -0.5310 C   0  0  0  0  0  0  0  0  0  0  0  0
    5.5485    0.7419   -0.9957 O   0  0  0  0  0  0  0  0  0  0  0  0
    4.1198   -1.1069   -0.4437 C   0  0  0  0  0  0  0  0  0  0  0  0
    2.6235   -1.2820   -0.6550 C   0  0  0  0  0  0  0  0  0  0  0  0
    1.7487   -0.4553    0.3362 C   0  0  0  0  0  0  0  0  0  0  0  0
    1.8040   -1.1040    1.7396 C   0  0  0  0  0  0  0  0  0  0  0  0
   -2.0393    0.7490   -0.1095 C   0  0  0  0  0  0  0  0  0  0  0  0
   -2.1577    1.4472   -1.4722 C   0  0  0  0  0  0  0  0  0  0  0  0
   -3.5724    1.1237   -1.9363 C   0  0  0  0  0  0  0  0  0  0  0  0
   -3.7955   -0.2426   -1.3427 C   0  0  0  0  0  0  0  0  0  0  0  0
   -4.7325   -0.9665   -1.6529 O   0  0  0  0  0  0  0  0  0  0  0  0
  1  2  1  0
  2  3  1  0
  3  4  1  0
  4  5  2  0
  4  6  1  0
  6  7  1  0
  7  8  1  0
  8  9  1  0
  9 10  1  0
 10 11  2  0
 11 12  1  0
 12 13  2  0
 12 14  1  0
 14 15  1  0
 15 16  1  0
 16 17  1  0
  7 18  1  0
 18 19  1  0
 19 20  1  0
 20 21  1  0
 21 22  2  0
 16  6  1  0
 16 10  1  0
 18  2  1  0
 21  2  1  0
M  END
>  <target>  (579) 
-3.48

$$$$

     RDKit          3D

 18 20  0  0  0  0  0  0  0  0999 V2000
    5.7132   -0.1805    0.1996 C   0  0  0  0  0  0  0  0  0  0  0  0
    4.9808   -0.8639   -0.7676 C   0  0  0  0  0  0  0  0  0  0  0  0
    3.5841   -0.8197   -0.7484 C   0  0  0  0  0  0  0  0  0  0  0  0
    2.8952   -0.0915    0.2360 C   0  0  0  0  0  0  0  0  0  0  0  0
    3.6538    0.5911    1.2018 C   0  0  0  0  0  0  0  0  0  0  0  0
    5.0506    0.5470    1.1849 C   0  0  0  0  0  0  0  0  0  0  0  0
    1.4240   -0.0450    0.2550 C   0  0  0  0  0  0  0  0  0  0  0  0
    0.7378    1.1780    0.2726 C   0  0  0  0  0  0  0  0  0  0  0  0
   -0.6618    1.2223    0.2894 C   0  0  0  0  0  0  0  0  0  0  0  0
   -1.4240    0.0450    0.2918 C   0  0  0  0  0  0  0  0  0  0  0  0
   -0.7378   -1.1781    0.2756 C   0  0  0  0  0  0  0  0  0  0  0  0
    0.6618   -1.2223    0.2562 C   0  0  0  0  0  0  0  0  0  0  0  0
   -2.8952    0.0915    0.3108 C   0  0  0  0  0  0  0  0  0  0  0  0
   -3.6087    0.8327   -0.6460 C   0  0  0  0  0  0  0  0  0  0  0  0
   -5.0055    0.8769   -0.6291 C   0  0  0  0  0  0  0  0  0  0  0  0
   -5.7132    0.1805    0.3472 C   0  0  0  0  0  0  0  0  0  0  0  0
   -5.0259   -0.5600    1.3055 C   0  0  0  0  0  0  0  0  0  0  0  0
   -3.6292   -0.6041    1.2863 C   0  0  0  0  0  0  0  0  0  0  0  0
  1  2  2  0
  2  3  1  0
  3  4  2  0
  4  5  1  0
  5  6  2  0
  4  7  1  0
  7  8  2  0
  8  9  1  0
  9 10  2  0
 10 11  1  0
 11 12  2  0
 10 13  1  0
 13 14  2  0
 14 15  1  0
 15 16  2  0
 16 17  1  0
 17 18  2  0
  6  1  1  0
 12  7  1  0
 18 13  1  0
M  END
>  <target>  (580) 
-7.11

$$$$

     RDKit          3D

  9  9  0  0  0  0  0  0  0  0999 V2000
    3.0003   -0.2063    0.0622 O   0  0  0  0  0  0  0  0  0  0  0  0
    1.6407   -0.1135    0.0339 C   0  0  0  0  0  0  0  0  0  0  0  0
    1.0735    1.1294    0.3007 C   0  0  0  0  0  0  0  0  0  0  0  0
   -0.3145    1.2764    0.2839 C   0  0  0  0  0  0  0  0  0  0  0  0
   -1.1199    0.1701   -0.0017 C   0  0  0  0  0  0  0  0  0  0  0  0
   -2.5879    0.3284   -0.0188 C   0  0  0  0  0  0  0  0  0  0  0  0
   -3.3409   -0.6062   -0.2627 O   0  0  0  0  0  0  0  0  0  0  0  0
   -0.5442   -1.0769   -0.2692 C   0  0  0  0  0  0  0  0  0  0  0  0
    0.8447   -1.2197   -0.2514 C   0  0  0  0  0  0  0  0  0  0  0  0
  1  2  1  0
  2  3  2  0
  3  4  1  0
  4  5  2  0
  5  6  1  0
  6  7  2  0
  5  8  1  0
  8  9  2  0
  9  2  1  0
M  END
>  <target>  (581) 
-0.96

$$$$

     RDKit          3D

  2  1  0  0  0  0  0  0  0  0999 V2000
   -0.1837   -0.0036    0.0078 C   0  0  0  0  0  0  0  0  0  0  0  0
    1.7491    0.0347   -0.0742 Br  0  0  0  0  0  0  0  0  0  0  0  0
  1  2  1  0
M  END
>  <target>  (582) 
-0.79

$$$$

     RDKit          3D

 24 25  0  0  0  0  0  0  0  0999 V2000
   -3.0221   -1.4770   -0.0484 C   0  0  0  0  0  0  0  0  0  0  0  0
   -1.5477   -1.6505    0.1870 C   0  0  0  0  0  0  0  0  0  0  0  0
   -0.7216   -1.8890   -0.9177 C   0  0  0  0  0  0  0  0  0  0  0  0
    0.6612   -1.9925   -0.7351 C   0  0  0  0  0  0  0  0  0  0  0  0
    1.2232   -2.0596    0.5397 C   0  0  0  0  0  0  0  0  0  0  0  0
    0.4079   -1.8039    1.6363 C   0  0  0  0  0  0  0  0  0  0  0  0
   -0.9476   -1.5009    1.4463 C   0  0  0  0  0  0  0  0  0  0  0  0
   -1.6128   -0.8176    2.5087 N   0  0  0  0  0  0  0  0  0  0  0  0
   -1.7211    0.8982    2.3643 S   0  0  0  0  0  0  0  0  0  0  0  0
   -2.7343    1.1847    1.3639 O   0  0  0  0  0  0  0  0  0  0  0  0
   -1.9488    1.3251    3.7373 O   0  0  0  0  0  0  0  0  0  0  0  0
   -0.0384    1.5081    1.7773 C   0  0  0  0  0  0  0  0  0  0  0  0
    0.9704    0.9661    2.5228 F   0  0  0  0  0  0  0  0  0  0  0  0
    0.2093    1.1894    0.4762 F   0  0  0  0  0  0  0  0  0  0  0  0
    0.0768    2.8605    1.8889 F   0  0  0  0  0  0  0  0  0  0  0  0
    1.7208   -1.5029   -2.0944 S   0  0  0  0  0  0  0  0  0  0  0  0
    3.0731   -1.9279   -1.7889 O   0  0  0  0  0  0  0  0  0  0  0  0
    1.0620   -1.8720   -3.3317 O   0  0  0  0  0  0  0  0  0  0  0  0
    1.6382    0.2754   -1.9062 C   0  0  0  0  0  0  0  0  0  0  0  0
    0.6326    0.9859   -2.5660 C   0  0  0  0  0  0  0  0  0  0  0  0
    0.3524    2.2946   -2.1733 C   0  0  0  0  0  0  0  0  0  0  0  0
    1.0639    2.8806   -1.1259 C   0  0  0  0  0  0  0  0  0  0  0  0
    2.0805    2.1720   -0.4842 C   0  0  0  0  0  0  0  0  0  0  0  0
    2.3911    0.8742   -0.8889 C   0  0  0  0  0  0  0  0  0  0  0  0
  1  2  1  0
  2  3  2  0
  3  4  1  0
  4  5  2  0
  5  6  1  0
  6  7  2  0
  7  8  1  0
  8  9  1  0
  9 10  2  0
  9 11  2  0
  9 12  1  0
 12 13  1  0
 12 14  1  0
 12 15  1  0
  4 16  1  0
 16 17  2  0
 16 18  2  0
 16 19  1  0
 19 20  2  0
 20 21  1  0
 21 22  2  0
 22 23  1  0
 23 24  2  0
  7  2  1  0
 24 19  1  0
M  END
>  <target>  (583) 
-3.8

$$$$

     RDKit          3D

 24 26  0  0  0  0  0  0  0  0999 V2000
   -2.7407    3.5403    0.0456 C   0  0  0  0  0  0  0  0  0  0  0  0
   -1.7937    2.5092    0.5998 C   0  0  0  0  0  0  0  0  0  0  0  0
   -0.7828    2.8381    1.2252 O   0  0  0  0  0  0  0  0  0  0  0  0
   -2.1698    1.0545    0.3761 C   0  0  0  0  0  0  0  0  0  0  0  0
   -1.0248    0.0987    0.7698 C   0  0  0  0  0  0  0  0  0  0  0  0
   -1.4554   -1.3505    1.0208 C   0  0  0  0  0  0  0  0  0  0  0  0
   -2.5619   -1.9388    0.3887 C   0  0  0  0  0  0  0  0  0  0  0  0
   -2.9119   -3.2673    0.6496 C   0  0  0  0  0  0  0  0  0  0  0  0
   -2.1563   -4.0227    1.5417 C   0  0  0  0  0  0  0  0  0  0  0  0
   -2.5915   -5.6560    1.8633 Cl  0  0  0  0  0  0  0  0  0  0  0  0
   -1.0490   -3.4638    2.1721 C   0  0  0  0  0  0  0  0  0  0  0  0
   -0.6989   -2.1369    1.9106 C   0  0  0  0  0  0  0  0  0  0  0  0
    0.1767    0.1886   -0.1692 C   0  0  0  0  0  0  0  0  0  0  0  0
    1.3468    0.7539    0.1815 C   0  0  0  0  0  0  0  0  0  0  0  0
    1.5358    1.4301    1.3705 O   0  0  0  0  0  0  0  0  0  0  0  0
    2.5190    0.6783   -0.6863 C   0  0  0  0  0  0  0  0  0  0  0  0
    3.7656    1.2175   -0.3475 C   0  0  0  0  0  0  0  0  0  0  0  0
    4.8543    1.0927   -1.2174 C   0  0  0  0  0  0  0  0  0  0  0  0
    4.7076    0.4264   -2.4343 C   0  0  0  0  0  0  0  0  0  0  0  0
    3.4723   -0.1137   -2.7834 C   0  0  0  0  0  0  0  0  0  0  0  0
    2.3979    0.0209   -1.9044 C   0  0  0  0  0  0  0  0  0  0  0  0
    1.1685   -0.5207   -2.3093 O   0  0  0  0  0  0  0  0  0  0  0  0
    0.0263   -0.3839   -1.5340 C   0  0  0  0  0  0  0  0  0  0  0  0
   -1.0712   -0.6967   -1.9853 O   0  0  0  0  0  0  0  0  0  0  0  0
  1  2  1  0
  2  3  2  0
  2  4  1  0
  4  5  1  0
  5  6  1  0
  6  7  2  0
  7  8  1  0
  8  9  2  0
  9 10  1  0
  9 11  1  0
 11 12  2  0
  5 13  1  0
 13 14  2  0
 14 15  1  0
 14 16  1  0
 16 17  2  0
 17 18  1  0
 18 19  2  0
 19 20  1  0
 20 21  2  0
 21 22  1  0
 22 23  1  0
 23 24  2  0
 12  6  1  0
 23 13  1  0
 21 16  1  0
M  END
>  <target>  (584) 
-5.8389999999999995

$$$$

     RDKit          3D

 12 13  0  0  0  0  0  0  0  0999 V2000
    3.5322    0.4926   -0.5230 C   0  0  0  0  0  0  0  0  0  0  0  0
    2.8007   -0.2566    0.5802 C   0  0  0  0  0  0  0  0  0  0  0  0
    1.3312   -0.4031    0.2788 C   0  0  0  0  0  0  0  0  0  0  0  0
    0.8581   -1.5150   -0.4245 C   0  0  0  0  0  0  0  0  0  0  0  0
   -0.5019   -1.6412   -0.7174 C   0  0  0  0  0  0  0  0  0  0  0  0
   -1.4174   -0.6559   -0.3178 C   0  0  0  0  0  0  0  0  0  0  0  0
   -2.7875   -0.7687   -0.6053 C   0  0  0  0  0  0  0  0  0  0  0  0
   -3.6850    0.2215   -0.2025 C   0  0  0  0  0  0  0  0  0  0  0  0
   -3.2245    1.3362    0.4919 C   0  0  0  0  0  0  0  0  0  0  0  0
   -1.8657    1.4630    0.7852 C   0  0  0  0  0  0  0  0  0  0  0  0
   -0.9494    0.4754    0.3876 C   0  0  0  0  0  0  0  0  0  0  0  0
    0.4217    0.5882    0.6752 C   0  0  0  0  0  0  0  0  0  0  0  0
  1  2  1  0
  2  3  1  0
  3  4  2  0
  4  5  1  0
  5  6  2  0
  6  7  1  0
  7  8  2  0
  8  9  1  0
  9 10  2  0
 10 11  1  0
 11 12  2  0
 12  3  1  0
 11  6  1  0
M  END
>  <target>  (585) 
-4.29

$$$$

     RDKit          3D

  9  9  0  0  0  0  0  0  0  0999 V2000
   -1.1222    1.8866   -0.1742 N   0  0  0  0  0  0  0  0  0  0  0  0
   -0.1048    0.9732   -0.0816 C   0  0  0  0  0  0  0  0  0  0  0  0
   -0.3890   -0.4929   -0.0498 C   0  0  0  0  0  0  0  0  0  0  0  0
   -1.7876   -0.9964   -0.1530 C   0  0  0  0  0  0  0  0  0  0  0  0
    0.6931   -1.2697    0.0509 C   0  0  0  0  0  0  0  0  0  0  0  0
    1.9347   -0.7163    0.1189 N   0  0  0  0  0  0  0  0  0  0  0  0
    2.1707    0.6355    0.0824 C   0  0  0  0  0  0  0  0  0  0  0  0
    3.3288    1.0382    0.1473 O   0  0  0  0  0  0  0  0  0  0  0  0
    1.0928    1.4752   -0.0183 N   0  0  0  0  0  0  0  0  0  0  0  0
  1  2  1  0
  2  3  1  0
  3  4  1  0
  3  5  2  0
  5  6  1  0
  6  7  1  0
  7  8  2  0
  7  9  1  0
  9  2  2  0
M  END
>  <target>  (586) 
-1.4580000000000002

$$$$

     RDKit          3D

 17 18  0  0  0  0  0  0  0  0999 V2000
    5.2591   -0.3314   -0.3879 Cl  0  0  0  0  0  0  0  0  0  0  0  0
    3.5238   -0.2221   -0.2599 C   0  0  0  0  0  0  0  0  0  0  0  0
    2.8143    0.6796   -1.0721 C   0  0  0  0  0  0  0  0  0  0  0  0
    3.6681    1.6891   -2.2078 Cl  0  0  0  0  0  0  0  0  0  0  0  0
    1.4121    0.7662   -0.9669 C   0  0  0  0  0  0  0  0  0  0  0  0
    0.5333    1.8870   -1.9770 Cl  0  0  0  0  0  0  0  0  0  0  0  0
    0.6990   -0.0440   -0.0516 C   0  0  0  0  0  0  0  0  0  0  0  0
   -0.7708    0.0486    0.0568 C   0  0  0  0  0  0  0  0  0  0  0  0
   -1.6006   -0.7601   -0.7367 C   0  0  0  0  0  0  0  0  0  0  0  0
   -2.9904   -0.6717   -0.6333 C   0  0  0  0  0  0  0  0  0  0  0  0
   -3.5678    0.2248    0.2631 C   0  0  0  0  0  0  0  0  0  0  0  0
   -2.7582    1.0339    1.0573 C   0  0  0  0  0  0  0  0  0  0  0  0
   -1.3682    0.9472    0.9556 C   0  0  0  0  0  0  0  0  0  0  0  0
    1.4314   -0.9454    0.7572 C   0  0  0  0  0  0  0  0  0  0  0  0
    0.5766   -1.9570    1.8951 Cl  0  0  0  0  0  0  0  0  0  0  0  0
    2.8336   -1.0355    0.6555 C   0  0  0  0  0  0  0  0  0  0  0  0
    3.7114   -2.1541    1.6635 Cl  0  0  0  0  0  0  0  0  0  0  0  0
  1  2  1  0
  2  3  2  0
  3  4  1  0
  3  5  1  0
  5  6  1  0
  5  7  2  0
  7  8  1  0
  8  9  2  0
  9 10  1  0
 10 11  2  0
 11 12  1  0
 12 13  2  0
  7 14  1  0
 14 15  1  0
 14 16  2  0
 16 17  1  0
 13  8  1  0
 16  2  1  0
M  END
>  <target>  (587) 
-7.92

$$$$

     RDKit          3D

 16 17  0  0  0  0  0  0  0  0999 V2000
   -2.3511   -0.2898    1.6060 C   0  0  0  0  0  0  0  0  0  0  0  0
   -1.7957   -0.0952    0.3344 C   0  0  0  0  0  0  0  0  0  0  0  0
   -0.3893   -0.0672    0.2443 N   0  0  0  0  0  0  0  0  0  0  0  0
    0.3766    0.1032   -0.8919 C   0  0  0  0  0  0  0  0  0  0  0  0
   -0.0091    0.3145   -2.0342 O   0  0  0  0  0  0  0  0  0  0  0  0
    1.8382    0.0998   -0.6442 C   0  0  0  0  0  0  0  0  0  0  0  0
    2.5240    1.2746   -0.9902 C   0  0  0  0  0  0  0  0  0  0  0  0
    3.8976    1.3786   -0.7740 C   0  0  0  0  0  0  0  0  0  0  0  0
    4.5948    0.3076   -0.2198 C   0  0  0  0  0  0  0  0  0  0  0  0
    3.9229   -0.8723    0.1088 C   0  0  0  0  0  0  0  0  0  0  0  0
    2.5427   -0.9854   -0.1061 C   0  0  0  0  0  0  0  0  0  0  0  0
    1.6650   -2.8332    0.3524 I   0  0  0  0  0  0  0  0  0  0  0  0
   -2.6504    0.0543   -0.7586 C   0  0  0  0  0  0  0  0  0  0  0  0
   -4.0375    0.0122   -0.5841 C   0  0  0  0  0  0  0  0  0  0  0  0
   -4.5806   -0.1804    0.6838 C   0  0  0  0  0  0  0  0  0  0  0  0
   -3.7368   -0.3319    1.7804 C   0  0  0  0  0  0  0  0  0  0  0  0
  1  2  2  0
  2  3  1  0
  3  4  1  0
  4  5  2  0
  4  6  1  0
  6  7  2  0
  7  8  1  0
  8  9  2  0
  9 10  1  0
 10 11  2  0
 11 12  1  0
  2 13  1  0
 13 14  2  0
 14 15  1  0
 15 16  2  0
 16  1  1  0
 11  6  1  0
M  END
>  <target>  (588) 
-4.21

$$$$

     RDKit          3D

 27 29  0  0  0  0  0  0  0  0999 V2000
   -5.2821   -0.8939    0.5299 C   0  0  0  0  0  0  0  0  0  0  0  0
   -3.8982   -0.6816   -0.0184 C   0  0  0  0  0  0  0  0  0  0  0  0
   -3.2591    0.5482    0.1888 C   0  0  0  0  0  0  0  0  0  0  0  0
   -1.9670    0.7894   -0.2897 C   0  0  0  0  0  0  0  0  0  0  0  0
   -1.3791    2.0312    0.0392 N   0  0  0  0  0  0  0  0  0  0  0  0
   -0.2125    2.2842   -0.4699 C   0  0  0  0  0  0  0  0  0  0  0  0
    0.5783    3.4921   -0.0926 C   0  0  0  0  0  0  0  0  0  0  0  0
    0.7067    3.8485    1.0645 O   0  0  0  0  0  0  0  0  0  0  0  0
    1.2608    3.9941   -1.1526 N   0  0  0  0  0  0  0  0  0  0  0  0
    1.9239    3.1188   -1.9679 C   0  0  0  0  0  0  0  0  0  0  0  0
    2.9787    3.4905   -2.4754 O   0  0  0  0  0  0  0  0  0  0  0  0
    1.4580    1.8397   -2.1471 N   0  0  0  0  0  0  0  0  0  0  0  0
    0.4611    1.3761   -1.4553 C   0  0  0  0  0  0  0  0  0  0  0  0
    0.0151    0.0650   -1.5161 N   0  0  0  0  0  0  0  0  0  0  0  0
    1.0063   -1.0141   -1.6862 C   0  0  0  0  0  0  0  0  0  0  0  0
    1.5518   -1.5872   -0.3511 C   0  0  0  0  0  0  0  0  0  0  0  0
    0.6858   -2.6503    0.0960 O   0  0  0  0  0  0  0  0  0  0  0  0
    1.7432   -0.5925    0.8208 C   0  0  0  0  0  0  0  0  0  0  0  0
    2.0314   -1.3936    1.9888 O   0  0  0  0  0  0  0  0  0  0  0  0
    2.8369    0.4795    0.5667 C   0  0  0  0  0  0  0  0  0  0  0  0
    2.3389    1.7590    1.0328 O   0  0  0  0  0  0  0  0  0  0  0  0
    4.1621    0.2251    1.2941 C   0  0  0  0  0  0  0  0  0  0  0  0
    3.9337    0.3844    2.7023 O   0  0  0  0  0  0  0  0  0  0  0  0
   -1.2705   -0.2212   -1.0003 C   0  0  0  0  0  0  0  0  0  0  0  0
   -1.9180   -1.4495   -1.2001 C   0  0  0  0  0  0  0  0  0  0  0  0
   -3.2162   -1.6952   -0.7132 C   0  0  0  0  0  0  0  0  0  0  0  0
   -3.8486   -3.0391   -0.9571 C   0  0  0  0  0  0  0  0  0  0  0  0
  1  2  1  0
  2  3  2  0
  3  4  1  0
  4  5  1  0
  5  6  2  0
  6  7  1  0
  7  8  2  0
  7  9  1  0
  9 10  1  0
 10 11  2  0
 10 12  1  0
 12 13  2  0
 13 14  1  0
 14 15  1  0
 15 16  1  0
 16 17  1  0
 16 18  1  0
 18 19  1  0
 18 20  1  0
 20 21  1  0
 20 22  1  0
 22 23  1  0
 14 24  1  0
 24 25  1  0
 25 26  2  0
 26 27  1  0
 13  6  1  0
 24  4  2  0
 26  2  1  0
M  END
>  <target>  (589) 
-3.685

$$$$

     RDKit          3D

  8  8  0  0  0  0  0  0  0  0999 V2000
    1.8392    1.9451   -0.0742 F   0  0  0  0  0  0  0  0  0  0  0  0
    0.9067    0.9818   -0.0364 C   0  0  0  0  0  0  0  0  0  0  0  0
   -0.4336    1.3533    0.0321 C   0  0  0  0  0  0  0  0  0  0  0  0
   -1.4227    0.3704    0.0725 C   0  0  0  0  0  0  0  0  0  0  0  0
   -1.0657   -0.9794    0.0442 C   0  0  0  0  0  0  0  0  0  0  0  0
    0.2803   -1.3490   -0.0245 C   0  0  0  0  0  0  0  0  0  0  0  0
    1.2677   -0.3636   -0.0648 C   0  0  0  0  0  0  0  0  0  0  0  0
    3.0865   -0.8721   -0.1578 Br  0  0  0  0  0  0  0  0  0  0  0  0
  1  2  1  0
  2  3  2  0
  3  4  1  0
  4  5  2  0
  5  6  1  0
  6  7  2  0
  7  8  1  0
  7  2  1  0
M  END
>  <target>  (590) 
-2.7

$$$$

     RDKit          3D

  9  9  0  0  0  0  0  0  0  0999 V2000
   -2.3051   -0.8174    0.6298 O   0  0  0  0  0  0  0  0  0  0  0  0
   -1.0445   -0.4038    0.3000 C   0  0  0  0  0  0  0  0  0  0  0  0
    0.0041   -1.2801    0.5605 C   0  0  0  0  0  0  0  0  0  0  0  0
    1.3099   -0.9039    0.2418 C   0  0  0  0  0  0  0  0  0  0  0  0
    1.5523    0.3449   -0.3340 C   0  0  0  0  0  0  0  0  0  0  0  0
    3.1646    0.8027   -0.7246 Cl  0  0  0  0  0  0  0  0  0  0  0  0
    0.5030    1.2252   -0.5962 C   0  0  0  0  0  0  0  0  0  0  0  0
   -0.7990    0.8456   -0.2765 C   0  0  0  0  0  0  0  0  0  0  0  0
   -2.1020    1.9282   -0.5973 Cl  0  0  0  0  0  0  0  0  0  0  0  0
  1  2  1  0
  2  3  2  0
  3  4  1  0
  4  5  2  0
  5  6  1  0
  5  7  1  0
  7  8  2  0
  8  9  1  0
  8  2  1  0
M  END
>  <target>  (591) 
-1.55

$$$$

     RDKit          3D

 26 28  0  0  0  0  0  0  0  0999 V2000
   -0.1359    1.9390   -1.7115 C   0  0  0  0  0  0  0  0  0  0  0  0
   -1.5807    1.9630   -1.2693 C   0  0  0  0  0  0  0  0  0  0  0  0
   -2.2809    3.2597   -1.5993 C   0  0  0  0  0  0  0  0  0  0  0  0
   -1.9160    1.1933   -0.0023 C   0  0  0  0  0  0  0  0  0  0  0  0
   -2.8853    1.7261    0.9684 C   0  0  0  0  0  0  0  0  0  0  0  0
   -2.6539    2.6259    1.9368 C   0  0  0  0  0  0  0  0  0  0  0  0
   -1.0975    3.3301    2.1823 Cl  0  0  0  0  0  0  0  0  0  0  0  0
   -3.9310    3.1213    2.9895 Cl  0  0  0  0  0  0  0  0  0  0  0  0
   -2.4156    0.6914   -1.3439 C   0  0  0  0  0  0  0  0  0  0  0  0
   -1.8718   -0.5440   -1.9560 C   0  0  0  0  0  0  0  0  0  0  0  0
   -1.7156   -0.6466   -3.1628 O   0  0  0  0  0  0  0  0  0  0  0  0
   -1.6301   -1.4982   -1.0269 O   0  0  0  0  0  0  0  0  0  0  0  0
   -1.0236   -2.6986   -1.5175 C   0  0  0  0  0  0  0  0  0  0  0  0
   -0.0066   -3.1391   -0.4960 C   0  0  0  0  0  0  0  0  0  0  0  0
   -0.1231   -4.3663    0.1688 C   0  0  0  0  0  0  0  0  0  0  0  0
    0.8350   -4.7541    1.1089 C   0  0  0  0  0  0  0  0  0  0  0  0
    1.9110   -3.9152    1.4007 C   0  0  0  0  0  0  0  0  0  0  0  0
    2.0254   -2.6829    0.7600 C   0  0  0  0  0  0  0  0  0  0  0  0
    3.1202   -1.9106    1.0825 O   0  0  0  0  0  0  0  0  0  0  0  0
    2.9156   -0.5521    1.1575 C   0  0  0  0  0  0  0  0  0  0  0  0
    3.6768    0.2690    0.3266 C   0  0  0  0  0  0  0  0  0  0  0  0
    3.5066    1.6523    0.3806 C   0  0  0  0  0  0  0  0  0  0  0  0
    2.5958    2.2098    1.2800 C   0  0  0  0  0  0  0  0  0  0  0  0
    1.8549    1.3857    2.1288 C   0  0  0  0  0  0  0  0  0  0  0  0
    2.0167    0.0014    2.0723 C   0  0  0  0  0  0  0  0  0  0  0  0
    1.0852   -2.3074   -0.2028 C   0  0  0  0  0  0  0  0  0  0  0  0
  1  2  1  0
  2  3  1  0
  2  4  1  0
  4  5  1  0
  5  6  2  3
  6  7  1  0
  6  8  1  0
  4  9  1  0
  9 10  1  0
 10 11  2  0
 10 12  1  0
 12 13  1  0
 13 14  1  0
 14 15  2  0
 15 16  1  0
 16 17  2  0
 17 18  1  0
 18 19  1  0
 19 20  1  0
 20 21  2  0
 21 22  1  0
 22 23  2  0
 23 24  1  0
 24 25  2  0
 18 26  2  0
  9  2  1  0
 26 14  1  0
 25 20  1  0
M  END
>  <target>  (592) 
-6.291

$$$$

     RDKit          3D

 23 25  0  0  0  0  0  0  0  0999 V2000
   -0.4657    1.3441   -1.8029 C   0  0  0  0  0  0  0  0  0  0  0  0
   -0.5235    0.0048   -1.1619 N   0  0  0  0  0  0  0  0  0  0  0  0
   -0.3381    0.0000    0.2742 C   0  0  0  0  0  0  0  0  0  0  0  0
   -1.4053    0.1577    1.0888 C   0  0  0  0  0  0  0  0  0  0  0  0
   -1.2995    0.2404    2.4693 O   0  0  0  0  0  0  0  0  0  0  0  0
   -2.7959    0.2602    0.5930 C   0  0  0  0  0  0  0  0  0  0  0  0
   -3.8136    0.8382    1.3645 C   0  0  0  0  0  0  0  0  0  0  0  0
   -5.1227    0.9266    0.8755 C   0  0  0  0  0  0  0  0  0  0  0  0
   -5.4379    0.4363   -0.3920 C   0  0  0  0  0  0  0  0  0  0  0  0
   -4.4461   -0.1503   -1.1729 C   0  0  0  0  0  0  0  0  0  0  0  0
   -3.1472   -0.2402   -0.6640 C   0  0  0  0  0  0  0  0  0  0  0  0
   -1.8623   -0.9539   -1.6315 S   0  0  0  0  0  0  0  0  0  0  0  0
   -1.6578   -2.3033   -1.1522 O   0  0  0  0  0  0  0  0  0  0  0  0
   -2.1448   -0.6737   -3.0239 O   0  0  0  0  0  0  0  0  0  0  0  0
    1.0623   -0.1065    0.8113 C   0  0  0  0  0  0  0  0  0  0  0  0
    1.2716    0.0466    2.0120 O   0  0  0  0  0  0  0  0  0  0  0  0
    1.9845   -0.3731   -0.1645 N   0  0  0  0  0  0  0  0  0  0  0  0
    3.3646   -0.5144   -0.0471 C   0  0  0  0  0  0  0  0  0  0  0  0
    4.0580   -0.4086    1.1506 C   0  0  0  0  0  0  0  0  0  0  0  0
    5.4431   -0.5667    1.1411 C   0  0  0  0  0  0  0  0  0  0  0  0
    6.0923   -0.8239   -0.0582 C   0  0  0  0  0  0  0  0  0  0  0  0
    5.3246   -0.9118   -1.2046 C   0  0  0  0  0  0  0  0  0  0  0  0
    3.9816   -0.7603   -1.2233 N   0  0  0  0  0  0  0  0  0  0  0  0
  1  2  1  0
  2  3  1  0
  3  4  2  0
  4  5  1  0
  4  6  1  0
  6  7  2  0
  7  8  1  0
  8  9  2  0
  9 10  1  0
 10 11  2  0
 11 12  1  0
 12 13  2  0
 12 14  2  0
  3 15  1  0
 15 16  2  0
 15 17  1  0
 17 18  1  0
 18 19  2  0
 19 20  1  0
 20 21  2  0
 21 22  1  0
 22 23  2  0
 11  6  1  0
 12  2  1  0
 23 18  1  0
M  END
>  <target>  (593) 
-4.16

$$$$

     RDKit          3D

 25 27  0  0  0  0  0  0  0  0999 V2000
    0.3826    2.9729   -1.1913 O   0  0  0  0  0  0  0  0  0  0  0  0
    0.0750    1.8187   -0.9462 C   0  0  0  0  0  0  0  0  0  0  0  0
    0.8578    0.7191   -1.0373 N   0  0  0  0  0  0  0  0  0  0  0  0
    2.2470    0.7347   -1.3994 C   0  0  0  0  0  0  0  0  0  0  0  0
    3.0053    0.8252   -0.1936 O   0  0  0  0  0  0  0  0  0  0  0  0
    4.3483    0.8186   -0.4076 C   0  0  0  0  0  0  0  0  0  0  0  0
    4.8809    0.7525   -1.5060 O   0  0  0  0  0  0  0  0  0  0  0  0
    5.0686    0.9061    0.9162 C   0  0  0  0  0  0  0  0  0  0  0  0
    6.5775    0.8997    0.7455 C   0  0  0  0  0  0  0  0  0  0  0  0
    0.1544   -0.4025   -0.6985 C   0  0  0  0  0  0  0  0  0  0  0  0
    0.6038   -1.5443   -0.7151 O   0  0  0  0  0  0  0  0  0  0  0  0
   -1.2961    0.0140   -0.2948 C   0  0  0  0  0  0  0  0  0  0  0  0
   -1.1737    1.4412   -0.5306 N   0  0  0  0  0  0  0  0  0  0  0  0
   -1.5196   -0.3207    1.1888 C   0  0  0  0  0  0  0  0  0  0  0  0
   -1.6821   -1.6639    1.5822 C   0  0  0  0  0  0  0  0  0  0  0  0
   -1.8742   -2.0053    2.9223 C   0  0  0  0  0  0  0  0  0  0  0  0
   -1.9036   -1.0127    3.8969 C   0  0  0  0  0  0  0  0  0  0  0  0
   -1.7388    0.3207    3.5331 C   0  0  0  0  0  0  0  0  0  0  0  0
   -1.5465    0.6654    2.1925 C   0  0  0  0  0  0  0  0  0  0  0  0
   -2.4062   -0.5229   -1.2097 C   0  0  0  0  0  0  0  0  0  0  0  0
   -2.1518   -1.3530   -2.3149 C   0  0  0  0  0  0  0  0  0  0  0  0
   -3.1948   -1.8063   -3.1285 C   0  0  0  0  0  0  0  0  0  0  0  0
   -4.5095   -1.4388   -2.8564 C   0  0  0  0  0  0  0  0  0  0  0  0
   -4.7870   -0.6170   -1.7691 C   0  0  0  0  0  0  0  0  0  0  0  0
   -3.7472   -0.1622   -0.9555 C   0  0  0  0  0  0  0  0  0  0  0  0
  1  2  2  0
  2  3  1  0
  3  4  1  0
  4  5  1  0
  5  6  1  0
  6  7  2  0
  6  8  1  0
  8  9  1  0
  3 10  1  0
 10 11  2  0
 10 12  1  0
 12 13  1  0
 12 14  1  0
 14 15  2  0
 15 16  1  0
 16 17  2  0
 17 18  1  0
 18 19  2  0
 12 20  1  0
 20 21  2  0
 21 22  1  0
 22 23  2  0
 23 24  1  0
 24 25  2  0
 13  2  1  0
 19 14  1  0
 25 20  1  0
M  END
>  <target>  (594) 
-4.907

$$$$

     RDKit          3D

  5  5  0  0  0  0  0  0  0  0999 V2000
   -0.6476   -1.1034   -0.0511 C   0  0  0  0  0  0  0  0  0  0  0  0
   -1.2331    0.3061   -0.1185 C   0  0  0  0  0  0  0  0  0  0  0  0
   -0.0425    1.2267   -0.3386 C   0  0  0  0  0  0  0  0  0  0  0  0
    1.0764    0.5349    0.4202 C   0  0  0  0  0  0  0  0  0  0  0  0
    0.8643   -0.9345    0.0894 C   0  0  0  0  0  0  0  0  0  0  0  0
  1  2  1  0
  2  3  1  0
  3  4  1  0
  4  5  1  0
  5  1  1  0
M  END
>  <target>  (595) 
-2.64

$$$$

     RDKit          3D

  8  8  0  0  0  0  0  0  0  0999 V2000
    2.0414   -0.2515    0.6161 C   0  0  0  0  0  0  0  0  0  0  0  0
    0.5943   -0.2971    0.2093 C   0  0  0  0  0  0  0  0  0  0  0  0
   -0.0608   -1.5398    0.1593 C   0  0  0  0  0  0  0  0  0  0  0  0
   -1.3906   -1.6301   -0.2491 C   0  0  0  0  0  0  0  0  0  0  0  0
   -2.0753   -0.4813   -0.6278 C   0  0  0  0  0  0  0  0  0  0  0  0
   -1.4346    0.7576   -0.5767 C   0  0  0  0  0  0  0  0  0  0  0  0
   -0.1183    0.8734   -0.1098 C   0  0  0  0  0  0  0  0  0  0  0  0
    0.5164    2.1241   -0.1804 N   0  0  0  0  0  0  0  0  0  0  0  0
  1  2  1  0
  2  3  2  0
  3  4  1  0
  4  5  2  0
  5  6  1  0
  6  7  2  0
  7  8  1  0
  7  2  1  0
M  END
>  <target>  (596) 
-2.21

$$$$

     RDKit          3D

 11 11  0  0  0  0  0  0  0  0999 V2000
   -1.9591   -0.3608   -0.2298 C   0  0  0  0  0  0  0  0  0  0  0  0
   -3.3256   -0.4111   -0.1978 O   0  0  0  0  0  0  0  0  0  0  0  0
   -4.0194    0.7823   -0.5382 C   0  0  0  0  0  0  0  0  0  0  0  0
   -1.1855    0.7496   -0.5662 C   0  0  0  0  0  0  0  0  0  0  0  0
    0.2115    0.6625   -0.5581 C   0  0  0  0  0  0  0  0  0  0  0  0
    0.8536   -0.5359   -0.2182 C   0  0  0  0  0  0  0  0  0  0  0  0
    2.3612   -0.6184   -0.1980 C   0  0  0  0  0  0  0  0  0  0  0  0
    2.9475   -0.0419    1.0599 C   0  0  0  0  0  0  0  0  0  0  0  0
    3.8229    0.9717    1.0918 C   0  0  0  0  0  0  0  0  0  0  0  0
    0.0716   -1.6446    0.1260 C   0  0  0  0  0  0  0  0  0  0  0  0
   -1.3226   -1.5546    0.1163 C   0  0  0  0  0  0  0  0  0  0  0  0
  1  2  1  0
  2  3  1  0
  1  4  2  0
  4  5  1  0
  5  6  2  0
  6  7  1  0
  7  8  1  0
  8  9  2  0
  6 10  1  0
 10 11  2  0
 11  1  1  0
M  END
>  <target>  (597) 
-2.92

$$$$

     RDKit          3D

 20 20  0  0  0  0  0  0  0  0999 V2000
    6.5342   -0.2302   -0.5318 C   0  0  0  0  0  0  0  0  0  0  0  0
    5.1240   -0.0067   -0.2623 N   0  0  0  0  0  0  0  0  0  0  0  0
    4.8324    0.6694    0.9963 C   0  0  0  0  0  0  0  0  0  0  0  0
    4.2211   -0.8666   -0.8989 C   0  0  0  0  0  0  0  0  0  0  0  0
    4.6044   -1.8015   -1.5973 O   0  0  0  0  0  0  0  0  0  0  0  0
    2.9020   -0.5345   -0.6914 N   0  0  0  0  0  0  0  0  0  0  0  0
    1.7609   -1.2880   -1.0300 C   0  0  0  0  0  0  0  0  0  0  0  0
    1.8024   -2.6347   -1.4020 C   0  0  0  0  0  0  0  0  0  0  0  0
    0.6231   -3.3281   -1.6987 C   0  0  0  0  0  0  0  0  0  0  0  0
   -0.6088   -2.6843   -1.6121 C   0  0  0  0  0  0  0  0  0  0  0  0
   -0.6507   -1.3507   -1.2159 C   0  0  0  0  0  0  0  0  0  0  0  0
   -1.9135   -0.7347   -1.1870 O   0  0  0  0  0  0  0  0  0  0  0  0
   -2.2571   -0.0044   -0.0564 C   0  0  0  0  0  0  0  0  0  0  0  0
   -1.5742    0.1244    0.9491 O   0  0  0  0  0  0  0  0  0  0  0  0
   -3.4886    0.5550   -0.2531 N   0  0  0  0  0  0  0  0  0  0  0  0
   -4.2036    1.4067    0.7011 C   0  0  0  0  0  0  0  0  0  0  0  0
   -3.4040    2.6842    1.0018 C   0  0  0  0  0  0  0  0  0  0  0  0
   -5.5466    1.8117    0.0669 C   0  0  0  0  0  0  0  0  0  0  0  0
   -4.4923    0.6468    2.0054 C   0  0  0  0  0  0  0  0  0  0  0  0
    0.5219   -0.6437   -0.9444 C   0  0  0  0  0  0  0  0  0  0  0  0
  1  2  1  0
  2  3  1  0
  2  4  1  0
  4  5  2  0
  4  6  1  0
  6  7  1  0
  7  8  2  0
  8  9  1  0
  9 10  2  0
 10 11  1  0
 11 12  1  0
 12 13  1  0
 13 14  2  0
 13 15  1  0
 15 16  1  0
 16 17  1  0
 16 18  1  0
 16 19  1  0
 11 20  2  0
 20  7  1  0
M  END
>  <target>  (598) 
-2.93

$$$$

     RDKit          3D

  5  4  0  0  0  0  0  0  0  0999 V2000
   -1.1835   -0.9054   -0.6715 C   0  0  0  0  0  0  0  0  0  0  0  0
   -0.1535    0.1687   -0.3236 C   0  0  0  0  0  0  0  0  0  0  0  0
   -0.8296    1.3655    0.3444 C   0  0  0  0  0  0  0  0  0  0  0  0
    0.9100   -0.4018    0.5812 C   0  0  0  0  0  0  0  0  0  0  0  0
    2.2099   -0.4629    0.2648 C   0  0  0  0  0  0  0  0  0  0  0  0
  1  2  1  0
  2  3  1  0
  2  4  1  0
  4  5  2  0
M  END
>  <target>  (599) 
-2.73

$$$$

     RDKit          3D

  7  7  0  0  0  0  0  0  0  0999 V2000
   -2.5236    0.0190    0.0843 O   0  0  0  0  0  0  0  0  0  0  0  0
   -1.1690    0.0255    0.0414 C   0  0  0  0  0  0  0  0  0  0  0  0
   -0.4687   -1.1488   -0.1380 C   0  0  0  0  0  0  0  0  0  0  0  0
    0.9187   -1.0679   -0.1720 C   0  0  0  0  0  0  0  0  0  0  0  0
    1.5310    0.1742   -0.0258 C   0  0  0  0  0  0  0  0  0  0  0  0
    0.7238    1.2898    0.1493 C   0  0  0  0  0  0  0  0  0  0  0  0
   -0.6263    1.2445    0.1868 N   0  0  0  0  0  0  0  0  0  0  0  0
  1  2  1  0
  2  3  2  0
  3  4  1  0
  4  5  2  0
  5  6  1  0
  6  7  2  0
  7  2  1  0
M  END
>  <target>  (600) 
1.02

$$$$

     RDKit          3D

  2  1  0  0  0  0  0  0  0  0999 V2000
    0.7535    0.0078    0.0614 C   0  0  0  0  0  0  0  0  0  0  0  0
   -0.7535   -0.0078   -0.0614 C   0  0  0  0  0  0  0  0  0  0  0  0
  1  2  1  0
M  END
>  <target>  (601) 
-1.36

$$$$

     RDKit          3D

  8  8  0  0  0  0  0  0  0  0999 V2000
    1.9837   -2.3112    0.2401 Cl  0  0  0  0  0  0  0  0  0  0  0  0
    0.8684   -0.9985    0.1043 C   0  0  0  0  0  0  0  0  0  0  0  0
   -0.4956   -1.3053    0.0592 C   0  0  0  0  0  0  0  0  0  0  0  0
   -1.4421   -0.2847   -0.0501 C   0  0  0  0  0  0  0  0  0  0  0  0
   -1.0287    1.0449   -0.1148 C   0  0  0  0  0  0  0  0  0  0  0  0
    0.3317    1.3557   -0.0702 C   0  0  0  0  0  0  0  0  0  0  0  0
    1.2834    0.3365    0.0394 C   0  0  0  0  0  0  0  0  0  0  0  0
    2.9490    0.7936    0.0892 Cl  0  0  0  0  0  0  0  0  0  0  0  0
  1  2  1  0
  2  3  2  0
  3  4  1  0
  4  5  2  0
  5  6  1  0
  6  7  2  0
  7  8  1  0
  7  2  1  0
M  END
>  <target>  (602) 
-3.05

$$$$

     RDKit          3D

 10 11  0  0  0  0  0  0  0  0999 V2000
    4.1289   -0.3558   -0.3915 S   0  0  0  0  0  0  0  0  0  0  0  0
    2.3846   -0.3316   -0.3668 C   0  0  0  0  0  0  0  0  0  0  0  0
    1.7462    0.4331    0.4857 N   0  0  0  0  0  0  0  0  0  0  0  0
    0.3809    0.2764    0.3089 C   0  0  0  0  0  0  0  0  0  0  0  0
   -0.6282    0.9339    1.0414 C   0  0  0  0  0  0  0  0  0  0  0  0
   -1.9738    0.6796    0.7558 C   0  0  0  0  0  0  0  0  0  0  0  0
   -2.3239   -0.2188   -0.2474 C   0  0  0  0  0  0  0  0  0  0  0  0
   -1.3428   -0.8844   -0.9889 C   0  0  0  0  0  0  0  0  0  0  0  0
    0.0052   -0.6217   -0.6938 C   0  0  0  0  0  0  0  0  0  0  0  0
    1.4255   -1.2733   -1.4190 S   0  0  0  0  0  0  0  0  0  0  0  0
  1  2  1  0
  2  3  2  0
  3  4  1  0
  4  5  2  0
  5  6  1  0
  6  7  2  0
  7  8  1  0
  8  9  2  0
  9 10  1  0
  9  4  1  0
 10  2  1  0
M  END
>  <target>  (603) 
-3.18

$$$$

     RDKit          3D

 22 23  0  0  0  0  0  0  0  0999 V2000
   -5.3039    0.3225   -0.3419 Cl  0  0  0  0  0  0  0  0  0  0  0  0
   -3.5682    0.2169   -0.2300 C   0  0  0  0  0  0  0  0  0  0  0  0
   -2.7940    0.1039   -1.3986 C   0  0  0  0  0  0  0  0  0  0  0  0
   -3.5643    0.0688   -2.9602 Cl  0  0  0  0  0  0  0  0  0  0  0  0
   -1.3917    0.0188   -1.3051 C   0  0  0  0  0  0  0  0  0  0  0  0
   -0.4207   -0.1218   -2.7487 Cl  0  0  0  0  0  0  0  0  0  0  0  0
   -0.7426    0.0452   -0.0479 C   0  0  0  0  0  0  0  0  0  0  0  0
   -1.5392    0.1594    1.1162 C   0  0  0  0  0  0  0  0  0  0  0  0
   -0.7511    0.1931    2.6732 Cl  0  0  0  0  0  0  0  0  0  0  0  0
   -2.9419    0.2449    1.0289 C   0  0  0  0  0  0  0  0  0  0  0  0
   -3.8958    0.3848    2.4793 Cl  0  0  0  0  0  0  0  0  0  0  0  0
    0.7426   -0.0452    0.0479 C   0  0  0  0  0  0  0  0  0  0  0  0
    1.5433    1.1216    0.0289 C   0  0  0  0  0  0  0  0  0  0  0  0
    0.7602    2.6753   -0.1091 Cl  0  0  0  0  0  0  0  0  0  0  0  0
    2.9459    1.0394    0.1191 C   0  0  0  0  0  0  0  0  0  0  0  0
    3.9049    2.4930    0.0931 Cl  0  0  0  0  0  0  0  0  0  0  0  0
    3.5682   -0.2169    0.2300 C   0  0  0  0  0  0  0  0  0  0  0  0
    5.3039   -0.3225    0.3419 Cl  0  0  0  0  0  0  0  0  0  0  0  0
    2.7899   -1.3881    0.2506 C   0  0  0  0  0  0  0  0  0  0  0  0
    3.5552   -2.9466    0.3878 Cl  0  0  0  0  0  0  0  0  0  0  0  0
    1.3876   -1.2998    0.1600 C   0  0  0  0  0  0  0  0  0  0  0  0
    0.4116   -2.7466    0.1846 Cl  0  0  0  0  0  0  0  0  0  0  0  0
  1  2  1  0
  2  3  2  0
  3  4  1  0
  3  5  1  0
  5  6  1  0
  5  7  2  0
  7  8  1  0
  8  9  1  0
  8 10  2  0
 10 11  1  0
  7 12  1  0
 12 13  2  0
 13 14  1  0
 13 15  1  0
 15 16  1  0
 15 17  2  0
 17 18  1  0
 17 19  1  0
 19 20  1  0
 19 21  2  0
 21 22  1  0
 10  2  1  0
 21 12  1  0
M  END
>  <target>  (604) 
-11.6

$$$$

     RDKit          3D

 16 18  0  0  0  0  0  0  0  0999 V2000
   -2.3054    2.2801   -0.7186 C   0  0  0  0  0  0  0  0  0  0  0  0
   -0.9314    2.1079   -0.4016 O   0  0  0  0  0  0  0  0  0  0  0  0
   -0.5040    0.8099   -0.1863 C   0  0  0  0  0  0  0  0  0  0  0  0
   -1.2583   -0.3717   -0.2406 C   0  0  0  0  0  0  0  0  0  0  0  0
   -2.5917   -0.4876   -0.5217 O   0  0  0  0  0  0  0  0  0  0  0  0
   -2.9117   -1.8040   -0.4683 C   0  0  0  0  0  0  0  0  0  0  0  0
   -1.8058   -2.5561   -0.1556 C   0  0  0  0  0  0  0  0  0  0  0  0
   -0.7282   -1.6418   -0.0055 C   0  0  0  0  0  0  0  0  0  0  0  0
    0.6395   -1.7690    0.3059 C   0  0  0  0  0  0  0  0  0  0  0  0
    1.4307   -0.6149    0.3709 C   0  0  0  0  0  0  0  0  0  0  0  0
    2.8487   -0.6971    0.6891 C   0  0  0  0  0  0  0  0  0  0  0  0
    3.5826    0.4179    0.7452 C   0  0  0  0  0  0  0  0  0  0  0  0
    3.0131    1.7522    0.4954 C   0  0  0  0  0  0  0  0  0  0  0  0
    3.7182    2.7525    0.5559 O   0  0  0  0  0  0  0  0  0  0  0  0
    1.6619    1.8032    0.1947 O   0  0  0  0  0  0  0  0  0  0  0  0
    0.8562    0.6354    0.1279 C   0  0  0  0  0  0  0  0  0  0  0  0
  1  2  1  0
  2  3  1  0
  3  4  2  0
  4  5  1  0
  5  6  1  0
  6  7  2  0
  7  8  1  0
  8  9  2  0
  9 10  1  0
 10 11  1  0
 11 12  2  0
 12 13  1  0
 13 14  2  0
 13 15  1  0
 15 16  1  0
  8  4  1  0
 16  3  1  0
 16 10  2  0
M  END
>  <target>  (605) 
-3.6639999999999997

$$$$

     RDKit          3D

  4  3  0  0  0  0  0  0  0  0999 V2000
   -1.0540   -0.1282    0.3145 C   0  0  0  0  0  0  0  0  0  0  0  0
    0.1986    0.5550   -0.1548 C   0  0  0  0  0  0  0  0  0  0  0  0
    0.2445    1.7424   -0.4526 O   0  0  0  0  0  0  0  0  0  0  0  0
    1.3050   -0.2353   -0.2298 N   0  0  0  0  0  0  0  0  0  0  0  0
  1  2  1  0
  2  3  2  0
  2  4  1  0
M  END
>  <target>  (606) 
1.58

$$$$

     RDKit          3D

 11 12  0  0  0  0  0  0  0  0999 V2000
   -2.0766   -1.6953    0.0535 C   0  0  0  0  0  0  0  0  0  0  0  0
   -1.3517   -0.3748    0.0449 C   0  0  0  0  0  0  0  0  0  0  0  0
   -2.1114    0.8056    0.0894 C   0  0  0  0  0  0  0  0  0  0  0  0
   -1.4910    2.0504    0.0836 C   0  0  0  0  0  0  0  0  0  0  0  0
   -0.1022    2.1334    0.0333 C   0  0  0  0  0  0  0  0  0  0  0  0
    0.6865    0.9746   -0.0120 C   0  0  0  0  0  0  0  0  0  0  0  0
    2.0870    1.0746   -0.0625 C   0  0  0  0  0  0  0  0  0  0  0  0
    2.8870   -0.0659   -0.1079 C   0  0  0  0  0  0  0  0  0  0  0  0
    2.2961   -1.3224   -0.1034 C   0  0  0  0  0  0  0  0  0  0  0  0
    0.9047   -1.4382   -0.0534 C   0  0  0  0  0  0  0  0  0  0  0  0
    0.0671   -0.3010   -0.0067 C   0  0  0  0  0  0  0  0  0  0  0  0
  1  2  1  0
  2  3  2  0
  3  4  1  0
  4  5  2  0
  5  6  1  0
  6  7  2  0
  7  8  1  0
  8  9  2  0
  9 10  1  0
 10 11  2  0
 11  2  1  0
 11  6  1  0
M  END
>  <target>  (607) 
-3.7

$$$$

     RDKit          3D

 20 21  0  0  0  0  0  0  0  0999 V2000
   -1.3382   -1.5471    1.4798 C   0  0  0  0  0  0  0  0  0  0  0  0
   -1.7613   -0.0876    1.5505 C   0  0  0  0  0  0  0  0  0  0  0  0
   -2.5834    0.3093    0.4036 N   0  0  0  0  0  0  0  0  0  0  0  0
   -3.9938   -0.0827    0.4298 C   0  0  0  0  0  0  0  0  0  0  0  0
   -4.8651    0.9843    1.0752 C   0  0  0  0  0  0  0  0  0  0  0  0
   -2.1383    1.0725   -0.6811 C   0  0  0  0  0  0  0  0  0  0  0  0
   -2.9179    1.4070   -1.5797 O   0  0  0  0  0  0  0  0  0  0  0  0
   -0.6617    1.5392   -0.6994 C   0  0  0  0  0  0  0  0  0  0  0  0
   -0.4042    2.4232   -1.9211 C   0  0  0  0  0  0  0  0  0  0  0  0
    0.1796    0.3889   -0.7676 O   0  0  0  0  0  0  0  0  0  0  0  0
    1.4820    0.4513   -0.3346 C   0  0  0  0  0  0  0  0  0  0  0  0
    2.0589    1.5653    0.2832 C   0  0  0  0  0  0  0  0  0  0  0  0
    3.3852    1.5274    0.7114 C   0  0  0  0  0  0  0  0  0  0  0  0
    4.1481    0.3774    0.5279 C   0  0  0  0  0  0  0  0  0  0  0  0
    3.5996   -0.7525   -0.0925 C   0  0  0  0  0  0  0  0  0  0  0  0
    4.3753   -1.9093   -0.2796 C   0  0  0  0  0  0  0  0  0  0  0  0
    3.8415   -3.0378   -0.9008 C   0  0  0  0  0  0  0  0  0  0  0  0
    2.5257   -3.0237   -1.3453 C   0  0  0  0  0  0  0  0  0  0  0  0
    1.7435   -1.8811   -1.1654 C   0  0  0  0  0  0  0  0  0  0  0  0
    2.2540   -0.7243   -0.5350 C   0  0  0  0  0  0  0  0  0  0  0  0
  1  2  1  0
  2  3  1  0
  3  4  1  0
  4  5  1  0
  3  6  1  0
  6  7  2  0
  6  8  1  0
  8  9  1  0
  8 10  1  0
 10 11  1  0
 11 12  2  0
 12 13  1  0
 13 14  2  0
 14 15  1  0
 15 16  2  0
 16 17  1  0
 17 18  2  0
 18 19  1  0
 19 20  2  0
 20 11  1  0
 20 15  1  0
M  END
>  <target>  (608) 
-3.57

$$$$

     RDKit          3D

  7  6  0  0  0  0  0  0  0  0999 V2000
    1.8334   -0.9905   -0.1844 C   0  0  0  0  0  0  0  0  0  0  0  0
    0.9686    0.2383   -0.4563 C   0  0  0  0  0  0  0  0  0  0  0  0
    1.5940    1.3616    0.1694 O   0  0  0  0  0  0  0  0  0  0  0  0
   -0.5091    0.1310    0.0241 C   0  0  0  0  0  0  0  0  0  0  0  0
   -1.2266   -1.0387   -0.6738 C   0  0  0  0  0  0  0  0  0  0  0  0
   -0.6028   -0.0646    1.5491 C   0  0  0  0  0  0  0  0  0  0  0  0
   -1.2534    1.4353   -0.3354 C   0  0  0  0  0  0  0  0  0  0  0  0
  1  2  1  0
  2  3  1  0
  2  4  1  0
  4  5  1  0
  4  6  1  0
  4  7  1  0
M  END
>  <target>  (609) 
-0.62

$$$$

     RDKit          3D

  8  7  0  0  0  0  0  0  0  0999 V2000
   -3.5605    0.2010    0.1240 C   0  0  0  0  0  0  0  0  0  0  0  0
   -2.2694   -0.5645    0.3633 C   0  0  0  0  0  0  0  0  0  0  0  0
   -1.0470    0.2653   -0.0207 C   0  0  0  0  0  0  0  0  0  0  0  0
    0.2421   -0.4868    0.2135 C   0  0  0  0  0  0  0  0  0  0  0  0
    0.3333   -1.6229    0.6554 O   0  0  0  0  0  0  0  0  0  0  0  0
    1.2957    0.3011   -0.1460 O   0  0  0  0  0  0  0  0  0  0  0  0
    2.5769   -0.3142    0.0348 C   0  0  0  0  0  0  0  0  0  0  0  0
    3.6419    0.6721   -0.4032 C   0  0  0  0  0  0  0  0  0  0  0  0
  1  2  1  0
  2  3  1  0
  3  4  1  0
  4  5  2  0
  4  6  1  0
  6  7  1  0
  7  8  1  0
M  END
>  <target>  (610) 
-1.36

$$$$

     RDKit          3D

 13 14  0  0  0  0  0  0  0  0999 V2000
    3.3678   -0.3054    0.3391 C   0  0  0  0  0  0  0  0  0  0  0  0
    1.9398    0.1138    0.1762 C   0  0  0  0  0  0  0  0  0  0  0  0
    1.5641    1.3934    0.0560 C   0  0  0  0  0  0  0  0  0  0  0  0
    0.1544    1.7975   -0.1042 C   0  0  0  0  0  0  0  0  0  0  0  0
   -0.1397    2.9810   -0.2102 O   0  0  0  0  0  0  0  0  0  0  0  0
   -0.8660    0.7350   -0.1306 C   0  0  0  0  0  0  0  0  0  0  0  0
   -2.2163    1.0764   -0.2810 C   0  0  0  0  0  0  0  0  0  0  0  0
   -3.1897    0.0764   -0.3071 C   0  0  0  0  0  0  0  0  0  0  0  0
   -2.8184   -1.2623   -0.1835 C   0  0  0  0  0  0  0  0  0  0  0  0
   -1.4729   -1.6036   -0.0335 C   0  0  0  0  0  0  0  0  0  0  0  0
   -0.4931   -0.6021   -0.0069 C   0  0  0  0  0  0  0  0  0  0  0  0
    0.9272   -0.9762    0.1523 C   0  0  0  0  0  0  0  0  0  0  0  0
    1.2582   -2.1509    0.2613 O   0  0  0  0  0  0  0  0  0  0  0  0
  1  2  1  0
  2  3  2  0
  3  4  1  0
  4  5  2  0
  4  6  1  0
  6  7  2  0
  7  8  1  0
  8  9  2  0
  9 10  1  0
 10 11  2  0
 11 12  1  0
 12 13  2  0
 11  6  1  0
 12  2  1  0
M  END
>  <target>  (611) 
-3.03

$$$$

     RDKit          3D

 14 16  0  0  0  0  0  0  0  0999 V2000
   -3.5426    0.3391   -0.3252 C   0  0  0  0  0  0  0  0  0  0  0  0
   -3.1287   -0.9551   -0.0511 C   0  0  0  0  0  0  0  0  0  0  0  0
   -1.7676   -1.2328    0.1085 C   0  0  0  0  0  0  0  0  0  0  0  0
   -0.7718   -0.2287    0.0002 C   0  0  0  0  0  0  0  0  0  0  0  0
   -1.2243    1.0864   -0.2809 C   0  0  0  0  0  0  0  0  0  0  0  0
   -2.5952    1.3528   -0.4392 C   0  0  0  0  0  0  0  0  0  0  0  0
   -0.3034    2.1300   -0.4025 C   0  0  0  0  0  0  0  0  0  0  0  0
    1.0610    1.8993   -0.2514 C   0  0  0  0  0  0  0  0  0  0  0  0
    1.5449    0.6183    0.0258 C   0  0  0  0  0  0  0  0  0  0  0  0
    2.9284    0.4191    0.1726 C   0  0  0  0  0  0  0  0  0  0  0  0
    3.4480   -0.8425    0.4490 C   0  0  0  0  0  0  0  0  0  0  0  0
    2.5878   -1.9214    0.5820 C   0  0  0  0  0  0  0  0  0  0  0  0
    1.2094   -1.7360    0.4382 C   0  0  0  0  0  0  0  0  0  0  0  0
    0.6409   -0.4675    0.1567 C   0  0  0  0  0  0  0  0  0  0  0  0
  1  2  2  0
  2  3  1  0
  3  4  2  0
  4  5  1  0
  5  6  2  0
  5  7  1  0
  7  8  2  0
  8  9  1  0
  9 10  2  0
 10 11  1  0
 11 12  2  0
 12 13  1  0
 13 14  2  0
  6  1  1  0
 14  4  1  0
 14  9  1  0
M  END
>  <target>  (612) 
-5.26

$$$$

     RDKit          3D

  8  8  0  0  0  0  0  0  0  0999 V2000
   -2.3728   -0.8572    0.0995 C   0  0  0  0  0  0  0  0  0  0  0  0
   -1.0983   -0.0721    0.0345 C   0  0  0  0  0  0  0  0  0  0  0  0
   -1.1204    1.3105   -0.1445 C   0  0  0  0  0  0  0  0  0  0  0  0
    0.0862    1.9858   -0.2307 C   0  0  0  0  0  0  0  0  0  0  0  0
    1.2932    1.3847   -0.1609 N   0  0  0  0  0  0  0  0  0  0  0  0
    1.3064    0.0410   -0.0016 C   0  0  0  0  0  0  0  0  0  0  0  0
    2.6454   -0.6298    0.0666 C   0  0  0  0  0  0  0  0  0  0  0  0
    0.1404   -0.7161    0.0940 C   0  0  0  0  0  0  0  0  0  0  0  0
  1  2  1  0
  2  3  2  0
  3  4  1  0
  4  5  2  0
  5  6  1  0
  6  7  1  0
  6  8  2  0
  8  2  1  0
M  END
>  <target>  (613) 
0.38

$$$$

     RDKit          3D

 10  9  0  0  0  0  0  0  0  0999 V2000
    4.9277    0.7949    0.2189 C   0  0  0  0  0  0  0  0  0  0  0  0
    3.8178   -0.1953    0.5335 C   0  0  0  0  0  0  0  0  0  0  0  0
    2.4728    0.2772   -0.0180 C   0  0  0  0  0  0  0  0  0  0  0  0
    1.3590   -0.7216    0.3007 C   0  0  0  0  0  0  0  0  0  0  0  0
    0.0123   -0.2488   -0.2519 C   0  0  0  0  0  0  0  0  0  0  0  0
   -1.1005   -1.2482    0.0718 C   0  0  0  0  0  0  0  0  0  0  0  0
   -2.4490   -0.8816   -0.5544 C   0  0  0  0  0  0  0  0  0  0  0  0
   -3.0528    0.4027    0.0115 C   0  0  0  0  0  0  0  0  0  0  0  0
   -4.4420    0.6645   -0.5575 C   0  0  0  0  0  0  0  0  0  0  0  0
   -4.9609    1.8757   -0.0246 O   0  0  0  0  0  0  0  0  0  0  0  0
  1  2  1  0
  2  3  1  0
  3  4  1  0
  4  5  1  0
  5  6  1  0
  6  7  1  0
  7  8  1  0
  8  9  1  0
  9 10  1  0
M  END
>  <target>  (614) 
-3.01

$$$$

     RDKit          3D

  3  2  0  0  0  0  0  0  0  0999 V2000
    1.6184    0.8787   -0.0566 Br  0  0  0  0  0  0  0  0  0  0  0  0
   -0.0005   -0.1762    0.0090 C   0  0  0  0  0  0  0  0  0  0  0  0
   -1.6131    0.8896   -0.0333 Br  0  0  0  0  0  0  0  0  0  0  0  0
  1  2  1  0
  2  3  1  0
M  END
>  <target>  (615) 
-1.17

$$$$

     RDKit          3D

 28 31  0  0  0  0  0  0  0  0999 V2000
   -3.1722   -1.9672   -2.5597 C   0  0  0  0  0  0  0  0  0  0  0  0
   -2.2708   -1.0323   -1.7566 C   0  0  0  0  0  0  0  0  0  0  0  0
   -0.9368   -1.7048   -1.3883 C   0  0  0  0  0  0  0  0  0  0  0  0
   -0.6358   -1.3532    0.0896 C   0  0  0  0  0  0  0  0  0  0  0  0
    0.8796   -1.1597    0.3492 C   0  0  0  0  0  0  0  0  0  0  0  0
    1.2208   -1.4553    1.8264 C   0  0  0  0  0  0  0  0  0  0  0  0
    2.7126   -1.3515    2.1241 C   0  0  0  0  0  0  0  0  0  0  0  0
    3.2635   -0.0250    1.6678 C   0  0  0  0  0  0  0  0  0  0  0  0
    3.9575    0.7554    2.5162 C   0  0  0  0  0  0  0  0  0  0  0  0
    4.5235    2.0573    2.1000 C   0  0  0  0  0  0  0  0  0  0  0  0
    5.1826    2.7404    2.8728 O   0  0  0  0  0  0  0  0  0  0  0  0
    4.2556    2.4954    0.7164 C   0  0  0  0  0  0  0  0  0  0  0  0
    3.5578    1.7230   -0.1285 C   0  0  0  0  0  0  0  0  0  0  0  0
    2.9857    0.3513    0.2089 C   0  0  0  0  0  0  0  0  0  0  0  0
    3.7868   -0.6183   -0.7041 C   0  0  0  0  0  0  0  0  0  0  0  0
    1.4331    0.2264   -0.1023 C   0  0  0  0  0  0  0  0  0  0  0  0
    1.3005    0.2982   -1.4746 F   0  0  0  0  0  0  0  0  0  0  0  0
    0.5190    1.3555    0.4534 C   0  0  0  0  0  0  0  0  0  0  0  0
    0.8990    2.6477   -0.0321 O   0  0  0  0  0  0  0  0  0  0  0  0
   -0.9429    1.1660    0.0022 C   0  0  0  0  0  0  0  0  0  0  0  0
   -1.5847   -0.1692    0.4279 C   0  0  0  0  0  0  0  0  0  0  0  0
   -1.9269   -0.1051    1.9312 C   0  0  0  0  0  0  0  0  0  0  0  0
   -2.8535   -0.5580   -0.4136 C   0  0  0  0  0  0  0  0  0  0  0  0
   -3.4851   -1.6942    0.2139 O   0  0  0  0  0  0  0  0  0  0  0  0
   -3.9488    0.5272   -0.5060 C   0  0  0  0  0  0  0  0  0  0  0  0
   -4.8376    0.5848    0.3571 O   0  0  0  0  0  0  0  0  0  0  0  0
   -3.9616    1.5026   -1.6754 C   0  0  0  0  0  0  0  0  0  0  0  0
   -4.9150    2.5385   -1.4765 O   0  0  0  0  0  0  0  0  0  0  0  0
  1  2  1  0
  2  3  1  0
  3  4  1  0
  4  5  1  0
  5  6  1  0
  6  7  1  0
  7  8  1  0
  8  9  2  0
  9 10  1  0
 10 11  2  0
 10 12  1  0
 12 13  2  0
 13 14  1  0
 14 15  1  0
 14 16  1  0
 16 17  1  0
 16 18  1  0
 18 19  1  0
 18 20  1  0
 20 21  1  0
 21 22  1  0
 21 23  1  0
 23 24  1  0
 23 25  1  0
 25 26  2  0
 25 27  1  0
 27 28  1  0
 23  2  1  0
 21  4  1  0
 16  5  1  0
 14  8  1  0
M  END
>  <target>  (616) 
-3.59

$$$$

     RDKit          3D

 12 13  0  0  0  0  0  0  0  0999 V2000
   -4.0096    0.2340   -0.0296 C   0  0  0  0  0  0  0  0  0  0  0  0
   -2.5390   -0.0210   -0.1779 C   0  0  0  0  0  0  0  0  0  0  0  0
   -2.0797   -1.1106   -0.9220 C   0  0  0  0  0  0  0  0  0  0  0  0
   -0.7104   -1.3645   -1.0328 C   0  0  0  0  0  0  0  0  0  0  0  0
    0.2281   -0.5400   -0.3934 C   0  0  0  0  0  0  0  0  0  0  0  0
    1.6089   -0.7830   -0.4958 C   0  0  0  0  0  0  0  0  0  0  0  0
    2.5410    0.0475    0.1412 C   0  0  0  0  0  0  0  0  0  0  0  0
    4.0086   -0.2472    0.0479 C   0  0  0  0  0  0  0  0  0  0  0  0
    2.0803    1.1187    0.9108 C   0  0  0  0  0  0  0  0  0  0  0  0
    0.7110    1.3725    1.0217 C   0  0  0  0  0  0  0  0  0  0  0  0
   -0.2270    0.5542    0.3737 C   0  0  0  0  0  0  0  0  0  0  0  0
   -1.6079    0.7972    0.4761 C   0  0  0  0  0  0  0  0  0  0  0  0
  1  2  1  0
  2  3  2  0
  3  4  1  0
  4  5  2  0
  5  6  1  0
  6  7  2  0
  7  8  1  0
  7  9  1  0
  9 10  2  0
 10 11  1  0
 11 12  2  0
 12  2  1  0
 11  5  1  0
M  END
>  <target>  (617) 
-4.89

$$$$

     RDKit          3D

 14 13  0  0  0  0  0  0  0  0999 V2000
    5.0179    0.3884   -1.0571 C   0  0  0  0  0  0  0  0  0  0  0  0
    3.6821   -0.3062   -1.2566 C   0  0  0  0  0  0  0  0  0  0  0  0
    2.4098    0.4947   -0.2400 S   0  0  0  0  0  0  0  0  0  0  0  0
    1.0204   -0.4939   -0.6755 C   0  0  0  0  0  0  0  0  0  0  0  0
    1.1492   -1.4256   -1.4631 O   0  0  0  0  0  0  0  0  0  0  0  0
   -0.1966   -0.1668   -0.0762 N   0  0  0  0  0  0  0  0  0  0  0  0
   -1.3449   -1.0199   -0.3908 C   0  0  0  0  0  0  0  0  0  0  0  0
   -1.3406   -2.3584    0.3742 C   0  0  0  0  0  0  0  0  0  0  0  0
   -1.4933   -2.1613    1.8830 C   0  0  0  0  0  0  0  0  0  0  0  0
   -2.4643   -3.2562   -0.1477 C   0  0  0  0  0  0  0  0  0  0  0  0
   -0.4255    0.9621    0.8375 C   0  0  0  0  0  0  0  0  0  0  0  0
   -0.6227    2.3113    0.1172 C   0  0  0  0  0  0  0  0  0  0  0  0
   -0.6356    3.4464    1.1436 C   0  0  0  0  0  0  0  0  0  0  0  0
   -1.9106    2.3462   -0.7070 C   0  0  0  0  0  0  0  0  0  0  0  0
  1  2  1  0
  2  3  1  0
  3  4  1  0
  4  5  2  0
  4  6  1  0
  6  7  1  0
  7  8  1  0
  8  9  1  0
  8 10  1  0
  6 11  1  0
 11 12  1  0
 12 13  1  0
 12 14  1  0
M  END
>  <target>  (618) 
-3.68

$$$$

     RDKit          3D

 15 14  0  0  0  0  0  0  0  0999 V2000
   -3.1997   -2.3897   -1.0873 O   0  0  0  0  0  0  0  0  0  0  0  0
   -2.9453   -1.4804   -0.3021 N   0  0  0  0  0  0  0  0  0  0  0  0
   -3.6309   -0.9862    0.5927 O   0  0  0  0  0  0  0  0  0  0  0  0
   -1.6409   -0.9545   -0.4792 O   0  0  0  0  0  0  0  0  0  0  0  0
   -1.3500    0.1101    0.4269 C   0  0  0  0  0  0  0  0  0  0  0  0
    0.0860    0.6048    0.1843 C   0  0  0  0  0  0  0  0  0  0  0  0
    1.0935   -0.5492    0.3110 C   0  0  0  0  0  0  0  0  0  0  0  0
    2.4082    0.0127    0.2974 O   0  0  0  0  0  0  0  0  0  0  0  0
    3.4197   -0.9711    0.4217 N   0  0  0  0  0  0  0  0  0  0  0  0
    4.5513   -0.4941    0.4031 O   0  0  0  0  0  0  0  0  0  0  0  0
    3.0513   -2.1401    0.5405 O   0  0  0  0  0  0  0  0  0  0  0  0
    0.2177    1.1173   -1.1506 O   0  0  0  0  0  0  0  0  0  0  0  0
   -0.1807    2.4689   -1.2894 N   0  0  0  0  0  0  0  0  0  0  0  0
   -0.6536    3.0180   -0.2945 O   0  0  0  0  0  0  0  0  0  0  0  0
   -0.0109    2.8995   -2.4262 O   0  0  0  0  0  0  0  0  0  0  0  0
  1  2  1  0
  2  3  2  0
  2  4  1  0
  4  5  1  0
  5  6  1  0
  6  7  1  0
  7  8  1  0
  8  9  1  0
  9 10  1  0
  9 11  2  0
  6 12  1  0
 12 13  1  0
 13 14  1  0
 13 15  2  0
M  CHG  6   1  -1   2   1   9   1  10  -1  13   1  14  -1
M  END
>  <target>  (619) 
-2.22

$$$$

     RDKit          3D

 10 10  0  0  0  0  0  0  0  0999 V2000
    2.4627   -0.9313    0.0624 N   0  0  0  0  0  0  0  0  0  0  0  0
    1.2421   -0.2508    0.0178 C   0  0  0  0  0  0  0  0  0  0  0  0
    1.2086    1.1405    0.1631 C   0  0  0  0  0  0  0  0  0  0  0  0
   -0.0056    1.8290    0.2440 C   0  0  0  0  0  0  0  0  0  0  0  0
   -1.2077    1.1254    0.2220 C   0  0  0  0  0  0  0  0  0  0  0  0
   -1.1786   -0.2716    0.1362 C   0  0  0  0  0  0  0  0  0  0  0  0
    0.0402   -0.9608    0.0545 C   0  0  0  0  0  0  0  0  0  0  0  0
   -2.4370   -1.0254    0.1429 N   0  0  0  0  0  0  0  0  0  0  0  0
   -2.3760   -2.2542   -0.0078 O   0  0  0  0  0  0  0  0  0  0  0  0
   -3.4900   -0.3889    0.2937 O   0  0  0  0  0  0  0  0  0  0  0  0
  1  2  1  0
  2  3  2  0
  3  4  1  0
  4  5  2  0
  5  6  1  0
  6  7  2  0
  6  8  1  0
  8  9  1  0
  8 10  2  0
  7  2  1  0
M  CHG  2   8   1   9  -1
M  END
>  <target>  (620) 
-2.19

$$$$

     RDKit          3D

  5  4  0  0  0  0  0  0  0  0999 V2000
    1.9141   -0.4232    0.0298 C   0  0  0  0  0  0  0  0  0  0  0  0
    0.6593    0.4352    0.0354 C   0  0  0  0  0  0  0  0  0  0  0  0
   -0.5843   -0.3878   -0.3006 C   0  0  0  0  0  0  0  0  0  0  0  0
   -1.8351    0.4810   -0.2923 C   0  0  0  0  0  0  0  0  0  0  0  0
   -3.2703   -0.4933   -0.6852 Cl  0  0  0  0  0  0  0  0  0  0  0  0
  1  2  1  0
  2  3  1  0
  3  4  1  0
  4  5  1  0
M  END
>  <target>  (621) 
-2.03

$$$$

     RDKit          3D

 22 22  0  0  0  0  0  0  0  0999 V2000
    2.3202   -3.1636    0.1445 Cl  0  0  0  0  0  0  0  0  0  0  0  0
    3.3798   -1.7584   -0.2614 C   0  0  0  0  0  0  0  0  0  0  0  0
    3.5014   -1.6560   -2.0608 Cl  0  0  0  0  0  0  0  0  0  0  0  0
    5.0340   -2.1796    0.3319 Cl  0  0  0  0  0  0  0  0  0  0  0  0
    2.8443   -0.4172    0.3963 C   0  0  0  0  0  0  0  0  0  0  0  0
    3.5413    0.8088    0.0307 N   0  0  0  0  0  0  0  0  0  0  0  0
    4.6116    1.2734    0.7370 C   0  0  0  0  0  0  0  0  0  0  0  0
    5.1140    0.7141    1.6988 O   0  0  0  0  0  0  0  0  0  0  0  0
    1.3983   -0.1416    0.1476 N   0  0  0  0  0  0  0  0  0  0  0  0
    0.8623    0.1817   -1.1094 C   0  0  0  0  0  0  0  0  0  0  0  0
   -0.4627    0.3116   -1.3095 C   0  0  0  0  0  0  0  0  0  0  0  0
   -1.3974    0.1289   -0.2765 N   0  0  0  0  0  0  0  0  0  0  0  0
   -0.8606   -0.1691    0.9864 C   0  0  0  0  0  0  0  0  0  0  0  0
    0.4650   -0.2954    1.1871 C   0  0  0  0  0  0  0  0  0  0  0  0
   -2.8580    0.1503   -0.5816 C   0  0  0  0  0  0  0  0  0  0  0  0
   -3.4042    1.2158    0.2472 N   0  0  0  0  0  0  0  0  0  0  0  0
   -4.4162    2.0238   -0.1791 C   0  0  0  0  0  0  0  0  0  0  0  0
   -4.9870    1.9256   -1.2535 O   0  0  0  0  0  0  0  0  0  0  0  0
   -3.5704   -1.2646   -0.4817 C   0  0  0  0  0  0  0  0  0  0  0  0
   -3.8286   -1.7962    1.2262 Cl  0  0  0  0  0  0  0  0  0  0  0  0
   -5.2026   -1.2479   -1.2569 Cl  0  0  0  0  0  0  0  0  0  0  0  0
   -2.6204   -2.5488   -1.3278 Cl  0  0  0  0  0  0  0  0  0  0  0  0
  1  2  1  0
  2  3  1  0
  2  4  1  0
  2  5  1  0
  5  6  1  0
  6  7  1  0
  7  8  2  0
  5  9  1  0
  9 10  1  0
 10 11  2  0
 11 12  1  0
 12 13  1  0
 13 14  2  0
 12 15  1  0
 15 16  1  0
 16 17  1  0
 17 18  2  0
 15 19  1  0
 19 20  1  0
 19 21  1  0
 19 22  1  0
 14  9  1  0
M  END
>  <target>  (622) 
-4.19

$$$$

     RDKit          3D

 24 26  0  0  0  0  0  0  0  0999 V2000
    2.2996    2.9219    1.7204 C   0  0  0  0  0  0  0  0  0  0  0  0
    1.5730    1.9229    0.9326 N   0  0  0  0  0  0  0  0  0  0  0  0
    2.2548    0.9668    0.1940 C   0  0  0  0  0  0  0  0  0  0  0  0
    1.6830   -0.0332   -0.5002 C   0  0  0  0  0  0  0  0  0  0  0  0
    2.5060   -1.0044   -1.2454 C   0  0  0  0  0  0  0  0  0  0  0  0
    3.4835   -0.5733   -2.1566 C   0  0  0  0  0  0  0  0  0  0  0  0
    4.2676   -1.4973   -2.8525 C   0  0  0  0  0  0  0  0  0  0  0  0
    4.0811   -2.8626   -2.6488 C   0  0  0  0  0  0  0  0  0  0  0  0
    3.1104   -3.3054   -1.7533 C   0  0  0  0  0  0  0  0  0  0  0  0
    2.3271   -2.3819   -1.0566 C   0  0  0  0  0  0  0  0  0  0  0  0
    0.1824   -0.1273   -0.4398 C   0  0  0  0  0  0  0  0  0  0  0  0
   -0.4269   -1.0096   -1.0422 O   0  0  0  0  0  0  0  0  0  0  0  0
   -0.5541    0.8922    0.3873 C   0  0  0  0  0  0  0  0  0  0  0  0
    0.1921    1.8205    1.0117 C   0  0  0  0  0  0  0  0  0  0  0  0
   -2.0205    0.8639    0.5460 C   0  0  0  0  0  0  0  0  0  0  0  0
   -2.7930    2.0115    0.3143 C   0  0  0  0  0  0  0  0  0  0  0  0
   -4.1803    1.9804    0.4673 C   0  0  0  0  0  0  0  0  0  0  0  0
   -4.8138    0.7999    0.8525 C   0  0  0  0  0  0  0  0  0  0  0  0
   -4.0663   -0.3624    1.0906 C   0  0  0  0  0  0  0  0  0  0  0  0
   -2.6711   -0.3189    0.9275 C   0  0  0  0  0  0  0  0  0  0  0  0
   -4.7564   -1.6460    1.4790 C   0  0  0  0  0  0  0  0  0  0  0  0
   -5.7877   -1.4442    2.3487 F   0  0  0  0  0  0  0  0  0  0  0  0
   -5.2950   -2.2951    0.4107 F   0  0  0  0  0  0  0  0  0  0  0  0
   -3.9325   -2.5427    2.0900 F   0  0  0  0  0  0  0  0  0  0  0  0
  1  2  1  0
  2  3  1  0
  3  4  2  0
  4  5  1  0
  5  6  2  0
  6  7  1  0
  7  8  2  0
  8  9  1  0
  9 10  2  0
  4 11  1  0
 11 12  2  0
 11 13  1  0
 13 14  2  0
 13 15  1  0
 15 16  2  0
 16 17  1  0
 17 18  2  0
 18 19  1  0
 19 20  2  0
 19 21  1  0
 21 22  1  0
 21 23  1  0
 21 24  1  0
 10  5  1  0
 14  2  1  0
 20 15  1  0
M  END
>  <target>  (623) 
-4.445

$$$$

     RDKit          3D

 19 22  0  0  0  0  0  0  0  0999 V2000
   -2.1880    2.6912    1.1753 N   0  0  0  0  0  0  0  0  0  0  0  0
   -1.5915    1.5441    0.6014 C   0  0  0  0  0  0  0  0  0  0  0  0
   -0.1938    1.4578    0.6363 C   0  0  0  0  0  0  0  0  0  0  0  0
    0.5332    0.3513    0.1520 C   0  0  0  0  0  0  0  0  0  0  0  0
    1.9812    0.3159    0.1550 C   0  0  0  0  0  0  0  0  0  0  0  0
    2.8177    1.3551    0.6459 C   0  0  0  0  0  0  0  0  0  0  0  0
    4.2143    1.2740    0.6238 C   0  0  0  0  0  0  0  0  0  0  0  0
    4.8318    0.1469    0.1078 C   0  0  0  0  0  0  0  0  0  0  0  0
    4.0506   -0.8940   -0.3829 C   0  0  0  0  0  0  0  0  0  0  0  0
    2.6466   -0.8195   -0.3632 C   0  0  0  0  0  0  0  0  0  0  0  0
    1.9026   -1.8813   -0.8632 C   0  0  0  0  0  0  0  0  0  0  0  0
    0.5091   -1.8417   -0.8533 C   0  0  0  0  0  0  0  0  0  0  0  0
   -0.2216   -0.7432   -0.3491 C   0  0  0  0  0  0  0  0  0  0  0  0
   -1.6671   -0.7171   -0.3174 C   0  0  0  0  0  0  0  0  0  0  0  0
   -2.4787   -1.7988   -0.7592 C   0  0  0  0  0  0  0  0  0  0  0  0
   -3.8737   -1.7795   -0.6953 C   0  0  0  0  0  0  0  0  0  0  0  0
   -4.5171   -0.6732   -0.1774 C   0  0  0  0  0  0  0  0  0  0  0  0
   -3.7607    0.4114    0.2591 C   0  0  0  0  0  0  0  0  0  0  0  0
   -2.3445    0.4255    0.1877 C   0  0  0  0  0  0  0  0  0  0  0  0
  1  2  1  0
  2  3  2  0
  3  4  1  0
  4  5  2  0
  5  6  1  0
  6  7  2  0
  7  8  1  0
  8  9  2  0
  9 10  1  0
 10 11  2  0
 11 12  1  0
 12 13  2  0
 13 14  1  0
 14 15  2  0
 15 16  1  0
 16 17  2  0
 17 18  1  0
 18 19  2  0
 10  5  1  0
 13  4  1  0
 19  2  1  0
 19 14  1  0
M  END
>  <target>  (624) 
-6.2

$$$$

     RDKit          3D

 20 23  0  0  0  0  0  0  0  0999 V2000
   -2.3341    1.4591   -1.3775 C   0  0  0  0  0  0  0  0  0  0  0  0
   -1.9220    0.1094   -0.7611 C   0  0  0  0  0  0  0  0  0  0  0  0
   -1.1106   -0.6775   -1.7937 C   0  0  0  0  0  0  0  0  0  0  0  0
   -0.3997   -1.8930   -1.2148 C   0  0  0  0  0  0  0  0  0  0  0  0
    0.5066   -1.5286   -0.0286 C   0  0  0  0  0  0  0  0  0  0  0  0
   -0.3772   -0.9277    1.0866 C   0  0  0  0  0  0  0  0  0  0  0  0
    0.5150   -0.6057    2.2955 C   0  0  0  0  0  0  0  0  0  0  0  0
    1.5804    0.4353    1.9690 C   0  0  0  0  0  0  0  0  0  0  0  0
    2.2271    0.2437    0.6186 C   0  0  0  0  0  0  0  0  0  0  0  0
    3.3505    1.0330    0.3143 C   0  0  0  0  0  0  0  0  0  0  0  0
    3.9831    0.9027   -0.9153 C   0  0  0  0  0  0  0  0  0  0  0  0
    5.0676    1.6593   -1.2415 O   0  0  0  0  0  0  0  0  0  0  0  0
    3.5271   -0.0111   -1.8495 C   0  0  0  0  0  0  0  0  0  0  0  0
    2.4099   -0.7949   -1.5602 C   0  0  0  0  0  0  0  0  0  0  0  0
    1.7209   -0.6605   -0.3413 C   0  0  0  0  0  0  0  0  0  0  0  0
   -1.2287    0.2917    0.6151 C   0  0  0  0  0  0  0  0  0  0  0  0
   -2.4077    0.5368    1.5770 C   0  0  0  0  0  0  0  0  0  0  0  0
   -3.5011   -0.4268    1.1252 C   0  0  0  0  0  0  0  0  0  0  0  0
   -3.2042   -0.5988   -0.3440 C   0  0  0  0  0  0  0  0  0  0  0  0
   -3.9284   -1.2305   -1.1038 O   0  0  0  0  0  0  0  0  0  0  0  0
  1  2  1  0
  2  3  1  0
  3  4  1  0
  4  5  1  0
  5  6  1  0
  6  7  1  0
  7  8  1  0
  8  9  1  0
  9 10  2  0
 10 11  1  0
 11 12  1  0
 11 13  2  0
 13 14  1  0
 14 15  2  0
  6 16  1  0
 16 17  1  0
 17 18  1  0
 18 19  1  0
 19 20  2  0
 19  2  1  0
 16  2  1  0
 15  5  1  0
 15  9  1  0
M  END
>  <target>  (625) 
-3.955

$$$$

     RDKit          3D

 19 21  0  0  0  0  0  0  0  0999 V2000
    2.6592   -1.1690    1.9067 C   0  0  0  0  0  0  0  0  0  0  0  0
    1.7579   -1.6444    0.7688 C   0  0  0  0  0  0  0  0  0  0  0  0
    0.7489   -0.6277    0.4257 N   0  0  0  0  0  0  0  0  0  0  0  0
   -0.4687   -1.0880   -0.1445 C   0  0  0  0  0  0  0  0  0  0  0  0
   -0.5370   -2.3129   -0.8441 C   0  0  0  0  0  0  0  0  0  0  0  0
   -1.7191   -2.7558   -1.4385 C   0  0  0  0  0  0  0  0  0  0  0  0
   -2.8631   -1.9787   -1.3559 C   0  0  0  0  0  0  0  0  0  0  0  0
   -2.8235   -0.7628   -0.6741 C   0  0  0  0  0  0  0  0  0  0  0  0
   -1.6416   -0.2951   -0.0620 C   0  0  0  0  0  0  0  0  0  0  0  0
   -1.6881    0.9311    0.6997 N   0  0  0  0  0  0  0  0  0  0  0  0
   -2.9524    1.1818    1.4171 C   0  0  0  0  0  0  0  0  0  0  0  0
   -0.6191    1.8588    0.7834 C   0  0  0  0  0  0  0  0  0  0  0  0
   -0.6245    3.1907    1.8529 S   0  0  0  0  0  0  0  0  0  0  0  0
    0.5538    1.7203   -0.1372 C   0  0  0  0  0  0  0  0  0  0  0  0
    1.0106    2.8216   -0.8792 C   0  0  0  0  0  0  0  0  0  0  0  0
    2.1893    2.7236   -1.6076 C   0  0  0  0  0  0  0  0  0  0  0  0
    2.8796    1.5292   -1.5599 C   0  0  0  0  0  0  0  0  0  0  0  0
    2.4594    0.4467   -0.8707 N   0  0  0  0  0  0  0  0  0  0  0  0
    1.2890    0.5340   -0.1788 C   0  0  0  0  0  0  0  0  0  0  0  0
  1  2  1  0
  2  3  1  0
  3  4  1  0
  4  5  2  0
  5  6  1  0
  6  7  2  0
  7  8  1  0
  8  9  2  0
  9 10  1  0
 10 11  1  0
 10 12  1  0
 12 13  2  0
 12 14  1  0
 14 15  2  0
 15 16  1  0
 16 17  2  0
 17 18  1  0
 18 19  2  0
  9  4  1  0
 19  3  1  0
 19 14  1  0
M  END
>  <target>  (626) 
-4.706

$$$$

     RDKit          3D

  4  4  0  0  0  0  0  0  0  0999 V2000
    1.2082   -0.1956   -0.1968 C   0  0  0  0  0  0  0  0  0  0  0  0
   -0.0304    0.4604    0.2986 C   0  0  0  0  0  0  0  0  0  0  0  0
   -1.3860   -0.1482    0.0617 C   0  0  0  0  0  0  0  0  0  0  0  0
   -0.8981    0.9454   -0.7314 O   0  0  0  0  0  0  0  0  0  0  0  0
  1  2  1  0
  2  3  1  0
  3  4  1  0
  4  2  1  0
M  END
>  <target>  (627) 
-0.59

$$$$

     RDKit          3D

 21 23  0  0  0  0  0  0  0  0999 V2000
   -0.1067   -4.5908    0.7484 O   0  0  0  0  0  0  0  0  0  0  0  0
   -0.2234   -3.3685    0.8473 C   0  0  0  0  0  0  0  0  0  0  0  0
    0.6612   -2.5309    1.7534 C   0  0  0  0  0  0  0  0  0  0  0  0
    1.4272   -1.5660    0.9760 N   0  0  0  0  0  0  0  0  0  0  0  0
    0.8207   -0.5929    0.3876 C   0  0  0  0  0  0  0  0  0  0  0  0
    1.6741    0.3449   -0.4095 C   0  0  0  0  0  0  0  0  0  0  0  0
    2.9202    0.7275    0.1003 C   0  0  0  0  0  0  0  0  0  0  0  0
    3.7312    1.6031   -0.6226 C   0  0  0  0  0  0  0  0  0  0  0  0
    3.3054    2.0882   -1.8590 C   0  0  0  0  0  0  0  0  0  0  0  0
    2.0734    1.6921   -2.3804 C   0  0  0  0  0  0  0  0  0  0  0  0
    1.2580    0.8161   -1.6611 C   0  0  0  0  0  0  0  0  0  0  0  0
   -0.6535   -0.3471    0.4337 C   0  0  0  0  0  0  0  0  0  0  0  0
   -1.0982    0.9814    0.5605 C   0  0  0  0  0  0  0  0  0  0  0  0
   -2.4608    1.2764    0.4317 C   0  0  0  0  0  0  0  0  0  0  0  0
   -3.3836    0.2601    0.1672 C   0  0  0  0  0  0  0  0  0  0  0  0
   -2.9411   -1.0616    0.0687 C   0  0  0  0  0  0  0  0  0  0  0  0
   -1.5861   -1.3815    0.2438 C   0  0  0  0  0  0  0  0  0  0  0  0
   -1.2632   -2.7450    0.2072 N   0  0  0  0  0  0  0  0  0  0  0  0
   -2.9217    2.6659    0.5518 N   0  0  0  0  0  0  0  0  0  0  0  0
   -4.1333    2.8830    0.4137 O   0  0  0  0  0  0  0  0  0  0  0  0
   -2.0707    3.5354    0.7820 O   0  0  0  0  0  0  0  0  0  0  0  0
  1  2  2  0
  2  3  1  0
  3  4  1  0
  4  5  2  0
  5  6  1  0
  6  7  2  0
  7  8  1  0
  8  9  2  0
  9 10  1  0
 10 11  2  0
  5 12  1  0
 12 13  2  0
 13 14  1  0
 14 15  2  0
 15 16  1  0
 16 17  2  0
 17 18  1  0
 14 19  1  0
 19 20  1  0
 19 21  2  0
 11  6  1  0
 17 12  1  0
 18  2  1  0
M  CHG  2  19   1  20  -1
M  END
>  <target>  (628) 
-3.7960000000000003

$$$$

     RDKit          3D

  8  7  0  0  0  0  0  0  0  0999 V2000
    2.7103    0.0995   -1.2632 C   0  0  0  0  0  0  0  0  0  0  0  0
    2.1775    0.2636    0.1479 C   0  0  0  0  0  0  0  0  0  0  0  0
    0.7673   -0.0953    0.2235 N   0  0  0  0  0  0  0  0  0  0  0  0
    0.0492   -0.2386    1.3759 C   0  0  0  0  0  0  0  0  0  0  0  0
    0.6496   -0.1494    2.9303 S   0  0  0  0  0  0  0  0  0  0  0  0
   -1.2769   -0.5072    1.2251 N   0  0  0  0  0  0  0  0  0  0  0  0
   -2.0461   -0.7228    0.0117 C   0  0  0  0  0  0  0  0  0  0  0  0
   -2.5799    0.5821   -0.5503 C   0  0  0  0  0  0  0  0  0  0  0  0
  1  2  1  0
  2  3  1  0
  3  4  1  0
  4  5  2  0
  4  6  1  0
  6  7  1  0
  7  8  1  0
M  END
>  <target>  (629) 
-1.46

$$$$

     RDKit          3D

 10 10  0  0  0  0  0  0  0  0999 V2000
    2.1264   -1.3627    0.0071 O   0  0  0  0  0  0  0  0  0  0  0  0
    0.9600   -0.6451    0.0025 C   0  0  0  0  0  0  0  0  0  0  0  0
   -0.2259   -1.3729   -0.0351 C   0  0  0  0  0  0  0  0  0  0  0  0
   -1.4415   -0.6943   -0.0414 C   0  0  0  0  0  0  0  0  0  0  0  0
   -2.9142   -1.5820   -0.0877 Cl  0  0  0  0  0  0  0  0  0  0  0  0
   -1.4770    0.6995   -0.0105 C   0  0  0  0  0  0  0  0  0  0  0  0
   -0.2816    1.4252    0.0272 C   0  0  0  0  0  0  0  0  0  0  0  0
   -0.3933    3.1496    0.0642 Cl  0  0  0  0  0  0  0  0  0  0  0  0
    0.9473    0.7546    0.0340 C   0  0  0  0  0  0  0  0  0  0  0  0
    2.4590    1.5961    0.0799 Cl  0  0  0  0  0  0  0  0  0  0  0  0
  1  2  1  0
  2  3  2  0
  3  4  1  0
  4  5  1  0
  4  6  2  0
  6  7  1  0
  7  8  1  0
  7  9  2  0
  9 10  1  0
  9  2  1  0
M  END
>  <target>  (630) 
-2.67

$$$$

     RDKit          3D

  8  7  0  0  0  0  0  0  0  0999 V2000
   -3.4315    0.0471   -0.0536 C   0  0  0  0  0  0  0  0  0  0  0  0
   -2.0919    0.7332   -0.2688 C   0  0  0  0  0  0  0  0  0  0  0  0
   -0.9274   -0.1813    0.1083 C   0  0  0  0  0  0  0  0  0  0  0  0
    0.4167    0.5113   -0.1092 C   0  0  0  0  0  0  0  0  0  0  0  0
    1.5784   -0.3815    0.2598 C   0  0  0  0  0  0  0  0  0  0  0  0
    1.4908   -1.5248    0.6839 O   0  0  0  0  0  0  0  0  0  0  0  0
    2.7477    0.2874    0.0458 O   0  0  0  0  0  0  0  0  0  0  0  0
    3.9156   -0.4703    0.3645 C   0  0  0  0  0  0  0  0  0  0  0  0
  1  2  1  0
  2  3  1  0
  3  4  1  0
  4  5  1  0
  5  6  2  0
  5  7  1  0
  7  8  1  0
M  END
>  <target>  (631) 
-1.34

$$$$

     RDKit          3D

  7  7  0  0  0  0  0  0  0  0999 V2000
    2.3201   -0.0822    0.0202 N   0  0  0  0  0  0  0  0  0  0  0  0
    0.9219   -0.0232    0.0665 C   0  0  0  0  0  0  0  0  0  0  0  0
    0.2577    1.1740   -0.2131 C   0  0  0  0  0  0  0  0  0  0  0  0
   -1.1372    1.2169   -0.2844 C   0  0  0  0  0  0  0  0  0  0  0  0
   -1.8795    0.0502   -0.1180 C   0  0  0  0  0  0  0  0  0  0  0  0
   -1.2248   -1.1596    0.1007 C   0  0  0  0  0  0  0  0  0  0  0  0
    0.1704   -1.1966    0.1710 C   0  0  0  0  0  0  0  0  0  0  0  0
  1  2  1  0
  2  3  2  0
  3  4  1  0
  4  5  2  0
  5  6  1  0
  6  7  2  0
  7  2  1  0
M  END
>  <target>  (632) 
-0.41

$$$$

     RDKit          3D

 12 13  0  0  0  0  0  0  0  0999 V2000
   -3.1116    0.7299   -0.0396 C   0  0  0  0  0  0  0  0  0  0  0  0
   -1.8742   -0.1312   -0.0518 C   0  0  0  0  0  0  0  0  0  0  0  0
   -2.0388   -1.5222   -0.1239 C   0  0  0  0  0  0  0  0  0  0  0  0
   -0.9349   -2.3621   -0.1383 C   0  0  0  0  0  0  0  0  0  0  0  0
    0.3480   -1.8218   -0.0808 C   0  0  0  0  0  0  0  0  0  0  0  0
    0.5672   -0.4295   -0.0073 C   0  0  0  0  0  0  0  0  0  0  0  0
    1.8742    0.1312    0.0518 C   0  0  0  0  0  0  0  0  0  0  0  0
    3.1116   -0.7299    0.0396 C   0  0  0  0  0  0  0  0  0  0  0  0
    2.0388    1.5222    0.1239 C   0  0  0  0  0  0  0  0  0  0  0  0
    0.9349    2.3621    0.1383 C   0  0  0  0  0  0  0  0  0  0  0  0
   -0.3480    1.8218    0.0808 C   0  0  0  0  0  0  0  0  0  0  0  0
   -0.5672    0.4295    0.0073 C   0  0  0  0  0  0  0  0  0  0  0  0
  1  2  1  0
  2  3  2  0
  3  4  1  0
  4  5  2  0
  5  6  1  0
  6  7  2  0
  7  8  1  0
  7  9  1  0
  9 10  2  0
 10 11  1  0
 11 12  2  0
 12  2  1  0
 12  6  1  0
M  END
>  <target>  (633) 
-4.678999999999999

$$$$

     RDKit          3D

 17 18  0  0  0  0  0  0  0  0999 V2000
    3.4955    1.6116   -0.5733 N   0  0  0  0  0  0  0  0  0  0  0  0
    3.4123   -0.0439   -0.2785 S   0  0  0  0  0  0  0  0  0  0  0  0
    3.8618   -0.6557   -1.5059 O   0  0  0  0  0  0  0  0  0  0  0  0
    4.0688   -0.2244    0.9938 O   0  0  0  0  0  0  0  0  0  0  0  0
    1.6932   -0.3788   -0.0790 C   0  0  0  0  0  0  0  0  0  0  0  0
    0.7586    0.6585   -0.1513 C   0  0  0  0  0  0  0  0  0  0  0  0
   -0.6014    0.3656    0.0037 C   0  0  0  0  0  0  0  0  0  0  0  0
   -1.0691   -0.9330    0.2153 C   0  0  0  0  0  0  0  0  0  0  0  0
   -2.4111   -1.2356    0.4759 N   0  0  0  0  0  0  0  0  0  0  0  0
   -3.4114   -0.2997    0.0189 C   0  0  0  0  0  0  0  0  0  0  0  0
   -3.1312    0.9823    0.6021 N   0  0  0  0  0  0  0  0  0  0  0  0
   -1.7609    1.6897   -0.0393 S   0  0  0  0  0  0  0  0  0  0  0  0
   -2.0077    1.9910   -1.4311 O   0  0  0  0  0  0  0  0  0  0  0  0
   -1.3259    2.6915    0.9072 O   0  0  0  0  0  0  0  0  0  0  0  0
   -0.1084   -1.9479    0.3241 C   0  0  0  0  0  0  0  0  0  0  0  0
    1.2627   -1.6847    0.1643 C   0  0  0  0  0  0  0  0  0  0  0  0
    2.3342   -3.0322    0.2994 Cl  0  0  0  0  0  0  0  0  0  0  0  0
  1  2  1  0
  2  3  2  0
  2  4  2  0
  2  5  1  0
  5  6  2  0
  6  7  1  0
  7  8  2  0
  8  9  1  0
  9 10  1  0
 10 11  1  0
 11 12  1  0
 12 13  2  0
 12 14  2  0
  8 15  1  0
 15 16  2  0
 16 17  1  0
 12  7  1  0
 16  5  1  0
M  END
>  <target>  (634) 
-2.63

$$$$

     RDKit          3D

 12 14  0  0  0  0  0  0  0  0999 V2000
   -1.1204    2.1646   -0.1538 C   0  0  0  0  0  0  0  0  0  0  0  0
    0.1992    2.4304   -0.1340 C   0  0  0  0  0  0  0  0  0  0  0  0
    0.9072    1.1604   -0.0424 C   0  0  0  0  0  0  0  0  0  0  0  0
    2.2468    0.8255    0.0123 C   0  0  0  0  0  0  0  0  0  0  0  0
    2.5932   -0.5359    0.0995 C   0  0  0  0  0  0  0  0  0  0  0  0
    1.6045   -1.5441    0.1311 C   0  0  0  0  0  0  0  0  0  0  0  0
    0.2400   -1.1974    0.0750 C   0  0  0  0  0  0  0  0  0  0  0  0
   -0.8849   -2.0454    0.0937 C   0  0  0  0  0  0  0  0  0  0  0  0
   -2.1854   -1.4983    0.0279 C   0  0  0  0  0  0  0  0  0  0  0  0
   -2.3905   -0.1085   -0.0572 C   0  0  0  0  0  0  0  0  0  0  0  0
   -1.2840    0.7190   -0.0753 C   0  0  0  0  0  0  0  0  0  0  0  0
   -0.0334    0.1665   -0.0104 C   0  0  0  0  0  0  0  0  0  0  0  0
  1  2  2  0
  2  3  1  0
  3  4  2  0
  4  5  1  0
  5  6  2  0
  6  7  1  0
  7  8  2  0
  8  9  1  0
  9 10  2  0
 10 11  1  0
 11 12  2  0
 11  1  1  0
 12  3  1  0
 12  7  1  0
M  END
>  <target>  (635) 
-3.96

$$$$

     RDKit          3D

 10  9  0  0  0  0  0  0  0  0999 V2000
    4.7049    0.1988    0.6406 C   0  0  0  0  0  0  0  0  0  0  0  0
    3.3186    0.8223    0.6695 C   0  0  0  0  0  0  0  0  0  0  0  0
    2.2624   -0.1348    0.1178 C   0  0  0  0  0  0  0  0  0  0  0  0
    0.8717    0.4952    0.1485 C   0  0  0  0  0  0  0  0  0  0  0  0
   -0.1886   -0.4532   -0.4004 C   0  0  0  0  0  0  0  0  0  0  0  0
   -1.4567    0.2130   -0.3356 O   0  0  0  0  0  0  0  0  0  0  0  0
   -2.5026   -0.5291   -0.7995 C   0  0  0  0  0  0  0  0  0  0  0  0
   -2.4163   -1.6657   -1.2411 O   0  0  0  0  0  0  0  0  0  0  0  0
   -3.7760    0.2734   -0.6811 C   0  0  0  0  0  0  0  0  0  0  0  0
   -4.9845   -0.4976   -1.1824 C   0  0  0  0  0  0  0  0  0  0  0  0
  1  2  1  0
  2  3  1  0
  3  4  1  0
  4  5  1  0
  5  6  1  0
  6  7  1  0
  7  8  2  0
  7  9  1  0
  9 10  1  0
M  END
>  <target>  (636) 
-1.28

$$$$

     RDKit          3D

 15 15  0  0  0  0  0  0  0  0999 V2000
    4.8096   -1.9163    0.0732 C   0  0  0  0  0  0  0  0  0  0  0  0
    3.4226   -1.3771    0.3863 C   0  0  0  0  0  0  0  0  0  0  0  0
    2.9753   -0.5373   -0.7102 N   0  0  0  0  0  0  0  0  0  0  0  0
    1.7465    0.0811   -0.4999 C   0  0  0  0  0  0  0  0  0  0  0  0
    0.7816   -0.5512    0.1579 N   0  0  0  0  0  0  0  0  0  0  0  0
   -0.3603    0.1067    0.2980 C   0  0  0  0  0  0  0  0  0  0  0  0
   -1.3538   -0.5698    0.9891 N   0  0  0  0  0  0  0  0  0  0  0  0
   -2.7360   -0.3119    0.6074 C   0  0  0  0  0  0  0  0  0  0  0  0
   -3.6422   -0.8709    1.7051 C   0  0  0  0  0  0  0  0  0  0  0  0
   -3.0648   -0.9740   -0.7307 C   0  0  0  0  0  0  0  0  0  0  0  0
   -0.5788    1.3260   -0.1665 N   0  0  0  0  0  0  0  0  0  0  0  0
    0.4530    1.8683   -0.8008 C   0  0  0  0  0  0  0  0  0  0  0  0
    0.3424    3.1404   -1.3245 O   0  0  0  0  0  0  0  0  0  0  0  0
   -0.9206    3.7421   -1.0739 C   0  0  0  0  0  0  0  0  0  0  0  0
    1.6330    1.2992   -0.9988 N   0  0  0  0  0  0  0  0  0  0  0  0
  1  2  1  0
  2  3  1  0
  3  4  1  0
  4  5  2  0
  5  6  1  0
  6  7  1  0
  7  8  1  0
  8  9  1  0
  8 10  1  0
  6 11  2  0
 11 12  1  0
 12 13  1  0
 13 14  1  0
 12 15  2  0
 15  4  1  0
M  END
>  <target>  (637) 
-2.084

$$$$

     RDKit          3D

 20 24  0  0  0  0  0  0  0  0999 V2000
    4.7352    0.4394    0.2790 C   0  0  0  0  0  0  0  0  0  0  0  0
    4.4533   -0.8581   -0.1170 C   0  0  0  0  0  0  0  0  0  0  0  0
    3.1253   -1.2637   -0.2795 C   0  0  0  0  0  0  0  0  0  0  0  0
    2.0312   -0.3891   -0.0527 C   0  0  0  0  0  0  0  0  0  0  0  0
    2.3492    0.9309    0.3512 C   0  0  0  0  0  0  0  0  0  0  0  0
    3.6886    1.3272    0.5113 C   0  0  0  0  0  0  0  0  0  0  0  0
    1.3269    1.8537    0.5946 C   0  0  0  0  0  0  0  0  0  0  0  0
   -0.0194    1.5085    0.4496 C   0  0  0  0  0  0  0  0  0  0  0  0
   -1.0241    2.4531    0.7001 C   0  0  0  0  0  0  0  0  0  0  0  0
   -2.3707    2.1205    0.5588 C   0  0  0  0  0  0  0  0  0  0  0  0
   -2.7454    0.8335    0.1630 C   0  0  0  0  0  0  0  0  0  0  0  0
   -4.0971    0.4885    0.0179 C   0  0  0  0  0  0  0  0  0  0  0  0
   -4.4632   -0.7963   -0.3770 C   0  0  0  0  0  0  0  0  0  0  0  0
   -3.4813   -1.7510   -0.6313 C   0  0  0  0  0  0  0  0  0  0  0  0
   -2.1221   -1.4318   -0.4936 C   0  0  0  0  0  0  0  0  0  0  0  0
   -1.1303   -2.3790   -0.7453 C   0  0  0  0  0  0  0  0  0  0  0  0
    0.2211   -2.0490   -0.6046 C   0  0  0  0  0  0  0  0  0  0  0  0
    0.6492   -0.7608   -0.2068 C   0  0  0  0  0  0  0  0  0  0  0  0
   -0.3655    0.1999    0.0483 C   0  0  0  0  0  0  0  0  0  0  0  0
   -1.7423   -0.1325   -0.0940 C   0  0  0  0  0  0  0  0  0  0  0  0
  1  2  2  0
  2  3  1  0
  3  4  2  0
  4  5  1  0
  5  6  2  0
  5  7  1  0
  7  8  2  0
  8  9  1  0
  9 10  2  0
 10 11  1  0
 11 12  2  0
 12 13  1  0
 13 14  2  0
 14 15  1  0
 15 16  2  0
 16 17  1  0
 17 18  2  0
 18 19  1  0
 19 20  2  0
  6  1  1  0
 18  4  1  0
 19  8  1  0
 20 11  1  0
 20 15  1  0
M  END
>  <target>  (638) 
-8.699

$$$$

     RDKit          3D

  3  2  0  0  0  0  0  0  0  0999 V2000
   -0.7980    0.0279   -0.0273 C   0  0  0  0  0  0  0  0  0  0  0  0
    0.6897   -0.2222    0.0560 C   0  0  0  0  0  0  0  0  0  0  0  0
    1.6561    1.4472   -0.1896 Br  0  0  0  0  0  0  0  0  0  0  0  0
  1  2  1  0
  2  3  1  0
M  END
>  <target>  (639) 
-1.09

$$$$

     RDKit          3D

  6  5  0  0  0  0  0  0  0  0999 V2000
    2.4531   -0.4262    1.1441 C   0  0  0  0  0  0  0  0  0  0  0  0
    2.0310   -0.7373   -0.2818 C   0  0  0  0  0  0  0  0  0  0  0  0
    0.6269   -0.3732   -0.5130 C   0  0  0  0  0  0  0  0  0  0  0  0
   -0.5214   -0.0756   -0.7028 C   0  0  0  0  0  0  0  0  0  0  0  0
   -1.9254    0.2880   -0.9357 C   0  0  0  0  0  0  0  0  0  0  0  0
   -2.5579    0.8723    0.3160 C   0  0  0  0  0  0  0  0  0  0  0  0
  1  2  1  0
  2  3  1  0
  3  4  3  0
  4  5  1  0
  5  6  1  0
M  END
>  <target>  (640) 
-1.99

$$$$

     RDKit          3D

 54 61  0  0  0  0  0  0  0  0999 V2000
   -0.6601   -0.3241   -1.2246 C   0  0  0  0  0  0  0  0  0  0  0  0
    0.4780   -0.7444   -2.1503 C   0  0  0  0  0  0  0  0  0  0  0  0
    1.5704   -1.2477   -1.3762 O   0  0  0  0  0  0  0  0  0  0  0  0
    2.6808   -0.3841   -1.1561 C   0  0  0  0  0  0  0  0  0  0  0  0
    2.3114    1.0943   -1.1671 C   0  0  0  0  0  0  0  0  0  0  0  0
    1.6598    1.4892   -2.4918 C   0  0  0  0  0  0  0  0  0  0  0  0
    2.6529    1.9763   -3.4020 O   0  0  0  0  0  0  0  0  0  0  0  0
    0.8764    0.3457   -3.1551 C   0  0  0  0  0  0  0  0  0  0  0  0
    1.6987   -0.2307   -4.2004 O   0  0  0  0  0  0  0  0  0  0  0  0
    3.7449   -0.5326   -2.0829 O   0  0  0  0  0  0  0  0  0  0  0  0
    4.3715   -1.8142   -2.1650 C   0  0  0  0  0  0  0  0  0  0  0  0
    5.7463   -1.5415   -2.7989 C   0  0  0  0  0  0  0  0  0  0  0  0
    6.5609   -2.7185   -2.7994 O   0  0  0  0  0  0  0  0  0  0  0  0
    5.6230   -0.9868   -4.2270 C   0  0  0  0  0  0  0  0  0  0  0  0
    4.3451   -1.4641   -4.9308 C   0  0  0  0  0  0  0  0  0  0  0  0
    4.0161   -2.7658   -4.4529 O   0  0  0  0  0  0  0  0  0  0  0  0
    3.5825   -2.7836   -3.0750 C   0  0  0  0  0  0  0  0  0  0  0  0
    3.6831   -4.2303   -2.5965 C   0  0  0  0  0  0  0  0  0  0  0  0
    3.3194   -0.4974   -4.7339 O   0  0  0  0  0  0  0  0  0  0  0  0
    2.3206   -0.3927   -5.7522 C   0  0  0  0  0  0  0  0  0  0  0  0
    1.8551    1.0795   -5.6915 C   0  0  0  0  0  0  0  0  0  0  0  0
    1.3263    1.4712   -6.9562 O   0  0  0  0  0  0  0  0  0  0  0  0
    0.7844    1.3047   -4.6149 C   0  0  0  0  0  0  0  0  0  0  0  0
    0.8412    0.2261   -3.5323 C   0  0  0  0  0  0  0  0  0  0  0  0
   -0.1824    0.5200   -2.5816 O   0  0  0  0  0  0  0  0  0  0  0  0
   -0.1369   -0.3055   -1.4111 C   0  0  0  0  0  0  0  0  0  0  0  0
    1.0065    0.1447   -0.4907 C   0  0  0  0  0  0  0  0  0  0  0  0
    0.5968    0.1312    0.9812 C   0  0  0  0  0  0  0  0  0  0  0  0
   -0.5852    1.1050    1.2856 C   0  0  0  0  0  0  0  0  0  0  0  0
    0.0279    2.5426    1.2947 C   0  0  0  0  0  0  0  0  0  0  0  0
   -1.6524    1.0406    0.1424 C   0  0  0  0  0  0  0  0  0  0  0  0
   -3.1004    1.1631    0.6323 C   0  0  0  0  0  0  0  0  0  0  0  0
   -3.2403    2.1612    1.7684 C   0  0  0  0  0  0  0  0  0  0  0  0
   -2.4354    1.7607    3.0262 C   0  0  0  0  0  0  0  0  0  0  0  0
   -1.1995    0.8560    2.7199 C   0  0  0  0  0  0  0  0  0  0  0  0
   -1.5028   -0.6011    3.0856 C   0  0  0  0  0  0  0  0  0  0  0  0
   -1.8437   -0.7804    4.5703 C   0  0  0  0  0  0  0  0  0  0  0  0
   -2.6292    0.3876    5.2477 C   0  0  0  0  0  0  0  0  0  0  0  0
   -1.6545    1.2043    6.1178 C   0  0  0  0  0  0  0  0  0  0  0  0
   -3.8156   -0.2245    6.0789 C   0  0  0  0  0  0  0  0  0  0  0  0
   -4.8786   -0.5129    4.9959 C   0  0  0  0  0  0  0  0  0  0  0  0
   -4.5663    0.3866    3.7914 C   0  0  0  0  0  0  0  0  0  0  0  0
   -3.3538    1.2542    4.1844 C   0  0  0  0  0  0  0  0  0  0  0  0
   -3.8916    2.4290    4.8176 O   0  0  0  0  0  0  0  0  0  0  0  0
   -4.3557    0.5697    7.2459 C   0  0  0  0  0  0  0  0  0  0  0  0
   -5.3686    1.4366    7.2858 C   0  0  0  0  0  0  0  0  0  0  0  0
   -5.5097    1.8851    8.6678 C   0  0  0  0  0  0  0  0  0  0  0  0
   -6.3386    2.6856    9.0599 O   0  0  0  0  0  0  0  0  0  0  0  0
   -4.5860    1.2525    9.4378 O   0  0  0  0  0  0  0  0  0  0  0  0
   -3.8012    0.3938    8.6119 C   0  0  0  0  0  0  0  0  0  0  0  0
   -1.5106   -0.2190   -0.7310 C   0  0  0  0  0  0  0  0  0  0  0  0
    0.6531   -1.0881   -4.0679 O   0  0  0  0  0  0  0  0  0  0  0  0
    1.0639   -1.2360   -5.4413 C   0  0  0  0  0  0  0  0  0  0  0  0
    1.1714   -2.7162   -5.7774 C   0  0  0  0  0  0  0  0  0  0  0  0
  1  2  1  0
  2  3  1  0
  3  4  1  0
  4  5  1  0
  5  6  1  0
  6  7  1  0
  6  8  1  0
  8  9  1  0
  4 10  1  0
 10 11  1  0
 11 12  1  0
 12 13  1  0
 12 14  1  0
 14 15  1  0
 15 16  1  0
 16 17  1  0
 17 18  1  0
 15 19  1  0
 19 20  1  0
 20 21  1  0
 21 22  1  0
 21 23  1  0
 23 24  1  0
 24 25  1  0
 25 26  1  0
 26 27  1  0
 27 28  1  0
 28 29  1  0
 29 30  1  0
 29 31  1  0
 31 32  1  0
 32 33  1  0
 33 34  1  0
 34 35  1  0
 35 36  1  0
 36 37  1  0
 37 38  1  0
 38 39  1  0
 38 40  1  0
 40 41  1  0
 41 42  1  0
 42 43  1  0
 43 44  1  0
 40 45  1  0
 45 46  2  0
 46 47  1  0
 47 48  2  0
 47 49  1  0
 49 50  1  0
 31 51  1  0
 24 52  1  0
 52 53  1  0
 53 54  1  0
  8  2  1  0
 17 11  1  0
 35 29  1  0
 43 34  1  0
 43 38  1  0
 50 45  1  0
 51 26  1  0
 53 20  1  0
M  END
>  <target>  (641) 
-5.292999999999999

$$$$

     RDKit          3D

  5  4  0  0  0  0  0  0  0  0999 V2000
    1.8017    0.4152    0.0176 C   0  0  0  0  0  0  0  0  0  0  0  0
    0.7346   -0.5430    0.5278 C   0  0  0  0  0  0  0  0  0  0  0  0
   -0.6167   -0.3024   -0.1033 C   0  0  0  0  0  0  0  0  0  0  0  0
   -1.1543   -1.1760   -0.9704 C   0  0  0  0  0  0  0  0  0  0  0  0
   -1.3482    0.9432    0.3125 C   0  0  0  0  0  0  0  0  0  0  0  0
  1  2  1  0
  2  3  1  0
  3  4  2  0
  3  5  1  0
M  END
>  <target>  (642) 
-2.73

$$$$

     RDKit          3D

 11 12  0  0  0  0  0  0  0  0999 V2000
   -1.8487   -2.1914   -0.4689 O   0  0  0  0  0  0  0  0  0  0  0  0
   -1.4334   -0.8967   -0.2645 C   0  0  0  0  0  0  0  0  0  0  0  0
   -2.3988    0.1054   -0.2446 C   0  0  0  0  0  0  0  0  0  0  0  0
   -2.0038    1.4232   -0.0396 C   0  0  0  0  0  0  0  0  0  0  0  0
   -0.6520    1.7214    0.1424 C   0  0  0  0  0  0  0  0  0  0  0  0
    0.3152    0.6981    0.1200 C   0  0  0  0  0  0  0  0  0  0  0  0
    1.6806    0.9568    0.2985 C   0  0  0  0  0  0  0  0  0  0  0  0
    2.5930   -0.0920    0.2671 C   0  0  0  0  0  0  0  0  0  0  0  0
    2.1101   -1.3710    0.0574 C   0  0  0  0  0  0  0  0  0  0  0  0
    0.8028   -1.6652   -0.1192 N   0  0  0  0  0  0  0  0  0  0  0  0
   -0.0764   -0.6396   -0.0871 C   0  0  0  0  0  0  0  0  0  0  0  0
  1  2  1  0
  2  3  2  0
  3  4  1  0
  4  5  2  0
  5  6  1  0
  6  7  2  0
  7  8  1  0
  8  9  2  0
  9 10  1  0
 10 11  2  0
 11  2  1  0
 11  6  1  0
M  END
>  <target>  (643) 
-2.42

$$$$

     RDKit          3D

 10 11  0  0  0  0  0  0  0  0999 V2000
   -2.1801   -0.6288    0.0182 C   0  0  0  0  0  0  0  0  0  0  0  0
   -2.0759    0.8633    0.3065 C   0  0  0  0  0  0  0  0  0  0  0  0
   -0.8681    1.4625   -0.4115 C   0  0  0  0  0  0  0  0  0  0  0  0
    0.3924    0.6514   -0.2357 C   0  0  0  0  0  0  0  0  0  0  0  0
    1.6285    1.2366   -0.5490 C   0  0  0  0  0  0  0  0  0  0  0  0
    2.8112    0.5077   -0.4279 C   0  0  0  0  0  0  0  0  0  0  0  0
    2.7711   -0.8153    0.0021 C   0  0  0  0  0  0  0  0  0  0  0  0
    1.5478   -1.4116    0.3067 C   0  0  0  0  0  0  0  0  0  0  0  0
    0.3499   -0.6923    0.1790 C   0  0  0  0  0  0  0  0  0  0  0  0
   -0.9504   -1.3623    0.5502 C   0  0  0  0  0  0  0  0  0  0  0  0
  1  2  1  0
  2  3  1  0
  3  4  1  0
  4  5  2  0
  5  6  1  0
  6  7  2  0
  7  8  1  0
  8  9  2  0
  9 10  1  0
 10  1  1  0
  9  4  1  0
M  END
>  <target>  (644) 
-4.37

$$$$

     RDKit          3D

 24 27  0  0  0  0  0  0  0  0999 V2000
    5.2588    0.6529   -1.3640 O   0  0  0  0  0  0  0  0  0  0  0  0
    3.9980    0.4929   -0.8714 C   0  0  0  0  0  0  0  0  0  0  0  0
    3.7700    0.2765    0.4817 C   0  0  0  0  0  0  0  0  0  0  0  0
    2.4596    0.1178    0.9435 C   0  0  0  0  0  0  0  0  0  0  0  0
    1.3637    0.1798    0.0603 C   0  0  0  0  0  0  0  0  0  0  0  0
    1.6314    0.3926   -1.3073 C   0  0  0  0  0  0  0  0  0  0  0  0
    2.9403    0.5513   -1.7678 C   0  0  0  0  0  0  0  0  0  0  0  0
   -0.0804   -0.0218    0.5554 C   0  0  0  0  0  0  0  0  0  0  0  0
   -0.1360    0.2130    1.9982 O   0  0  0  0  0  0  0  0  0  0  0  0
   -0.6190   -0.8527    2.6929 C   0  0  0  0  0  0  0  0  0  0  0  0
   -0.8054   -0.9130    3.8913 O   0  0  0  0  0  0  0  0  0  0  0  0
   -0.8245   -1.9201    1.7306 C   0  0  0  0  0  0  0  0  0  0  0  0
   -1.2502   -3.2152    1.9754 C   0  0  0  0  0  0  0  0  0  0  0  0
   -1.3281   -4.0861    0.8894 C   0  0  0  0  0  0  0  0  0  0  0  0
   -0.9724   -3.6489   -0.3964 C   0  0  0  0  0  0  0  0  0  0  0  0
   -0.5440   -2.3343   -0.6114 C   0  0  0  0  0  0  0  0  0  0  0  0
   -0.4862   -1.4647    0.4723 C   0  0  0  0  0  0  0  0  0  0  0  0
   -1.0700    1.0031   -0.0275 C   0  0  0  0  0  0  0  0  0  0  0  0
   -0.8363    2.3797    0.1882 C   0  0  0  0  0  0  0  0  0  0  0  0
   -1.6992    3.3548   -0.3186 C   0  0  0  0  0  0  0  0  0  0  0  0
   -2.8152    2.9641   -1.0457 C   0  0  0  0  0  0  0  0  0  0  0  0
   -3.6860    3.8786   -1.5589 O   0  0  0  0  0  0  0  0  0  0  0  0
   -3.0797    1.6204   -1.2682 C   0  0  0  0  0  0  0  0  0  0  0  0
   -2.2156    0.6447   -0.7612 C   0  0  0  0  0  0  0  0  0  0  0  0
  1  2  1  0
  2  3  2  0
  3  4  1  0
  4  5  2  0
  5  6  1  0
  6  7  2  0
  5  8  1  0
  8  9  1  0
  9 10  1  0
 10 11  2  0
 10 12  1  0
 12 13  2  0
 13 14  1  0
 14 15  2  0
 15 16  1  0
 16 17  2  0
  8 18  1  0
 18 19  2  0
 19 20  1  0
 20 21  2  0
 21 22  1  0
 21 23  1  0
 23 24  2  0
  7  2  1  0
 17  8  1  0
 17 12  1  0
 24 18  1  0
M  END
>  <target>  (645) 
-2.9

$$$$

     RDKit          3D

  9  9  0  0  0  0  0  0  0  0999 V2000
   -1.3895    2.9699   -0.0753 Br  0  0  0  0  0  0  0  0  0  0  0  0
   -0.5884    1.2576   -0.0319 C   0  0  0  0  0  0  0  0  0  0  0  0
   -1.3943    0.1204    0.0017 C   0  0  0  0  0  0  0  0  0  0  0  0
   -0.7953   -1.1381    0.0336 C   0  0  0  0  0  0  0  0  0  0  0  0
   -1.8780   -2.6876    0.0793 Br  0  0  0  0  0  0  0  0  0  0  0  0
    0.5929   -1.2673    0.0321 C   0  0  0  0  0  0  0  0  0  0  0  0
    1.3837   -0.1195   -0.0017 C   0  0  0  0  0  0  0  0  0  0  0  0
    3.2675   -0.2822   -0.0040 Br  0  0  0  0  0  0  0  0  0  0  0  0
    0.8014    1.1469   -0.0338 C   0  0  0  0  0  0  0  0  0  0  0  0
  1  2  1  0
  2  3  2  0
  3  4  1  0
  4  5  1  0
  4  6  2  0
  6  7  1  0
  7  8  1  0
  7  9  2  0
  9  2  1  0
M  END
>  <target>  (646) 
-5.6

$$$$

     RDKit          3D

 16 16  0  0  0  0  0  0  0  0999 V2000
   -2.8823   -2.0671    0.0583 C   0  0  0  0  0  0  0  0  0  0  0  0
   -2.7131   -0.6795    0.2746 O   0  0  0  0  0  0  0  0  0  0  0  0
   -1.4091    0.0403   -0.3628 P   0  0  0  0  0  0  0  0  0  0  0  0
   -1.2818    0.0406   -2.2988 S   0  0  0  0  0  0  0  0  0  0  0  0
   -1.4831    1.4931    0.3519 O   0  0  0  0  0  0  0  0  0  0  0  0
   -2.5690    2.3416    0.0342 C   0  0  0  0  0  0  0  0  0  0  0  0
   -0.2122   -0.6699    0.4724 O   0  0  0  0  0  0  0  0  0  0  0  0
    1.1016   -0.3945    0.2065 C   0  0  0  0  0  0  0  0  0  0  0  0
    1.6341    0.8521    0.5322 C   0  0  0  0  0  0  0  0  0  0  0  0
    2.9815    1.1202    0.2709 C   0  0  0  0  0  0  0  0  0  0  0  0
    3.5830    2.6842    0.6907 Cl  0  0  0  0  0  0  0  0  0  0  0  0
    3.7930    0.1342   -0.3063 C   0  0  0  0  0  0  0  0  0  0  0  0
    5.4644    0.3997   -0.6535 Cl  0  0  0  0  0  0  0  0  0  0  0  0
    3.2580   -1.1202   -0.6146 C   0  0  0  0  0  0  0  0  0  0  0  0
    1.9144   -1.3851   -0.3519 C   0  0  0  0  0  0  0  0  0  0  0  0
    1.2839   -2.9453   -0.7307 Cl  0  0  0  0  0  0  0  0  0  0  0  0
  1  2  1  0
  2  3  1  0
  3  4  2  0
  3  5  1  0
  5  6  1  0
  3  7  1  0
  7  8  1  0
  8  9  2  0
  9 10  1  0
 10 11  1  0
 10 12  2  0
 12 13  1  0
 12 14  1  0
 14 15  2  0
 15 16  1  0
 15  8  1  0
M  END
>  <target>  (647) 
-5.72

$$$$

     RDKit          3D

  9  9  0  0  0  0  0  0  0  0999 V2000
    2.1898   -0.3491    0.1191 C   0  0  0  0  0  0  0  0  0  0  0  0
    0.7266   -0.0356    0.0626 C   0  0  0  0  0  0  0  0  0  0  0  0
    0.2237    1.1704    0.3581 C   0  0  0  0  0  0  0  0  0  0  0  0
   -1.2346    1.3903    0.2752 C   0  0  0  0  0  0  0  0  0  0  0  0
   -1.7259    2.4813    0.5389 O   0  0  0  0  0  0  0  0  0  0  0  0
   -1.9813    0.3103   -0.1094 N   0  0  0  0  0  0  0  0  0  0  0  0
   -1.4710   -0.9184   -0.4107 C   0  0  0  0  0  0  0  0  0  0  0  0
   -2.4427   -2.1851   -0.8714 S   0  0  0  0  0  0  0  0  0  0  0  0
   -0.1149   -1.0554   -0.3143 N   0  0  0  0  0  0  0  0  0  0  0  0
  1  2  1  0
  2  3  2  0
  3  4  1  0
  4  5  2  0
  4  6  1  0
  6  7  1  0
  7  8  2  0
  7  9  1  0
  9  2  1  0
M  END
>  <target>  (648) 
-2.436

$$$$

     RDKit          3D

 12 12  0  0  0  0  0  0  0  0999 V2000
   -2.4351    1.6024    1.4197 C   0  0  0  0  0  0  0  0  0  0  0  0
   -2.6182    0.2565    0.9958 O   0  0  0  0  0  0  0  0  0  0  0  0
   -1.5832   -0.3112    0.2972 C   0  0  0  0  0  0  0  0  0  0  0  0
   -0.3864    0.3127   -0.0574 C   0  0  0  0  0  0  0  0  0  0  0  0
    0.5981   -0.3889   -0.7800 C   0  0  0  0  0  0  0  0  0  0  0  0
    1.8976    0.2894   -1.1489 C   0  0  0  0  0  0  0  0  0  0  0  0
    2.8460    0.3735    0.0137 C   0  0  0  0  0  0  0  0  0  0  0  0
    3.3400    1.5170    0.5067 C   0  0  0  0  0  0  0  0  0  0  0  0
    0.3700   -1.7277   -1.1339 C   0  0  0  0  0  0  0  0  0  0  0  0
   -0.8244   -2.3554   -0.7847 C   0  0  0  0  0  0  0  0  0  0  0  0
   -1.7844   -1.6442   -0.0775 C   0  0  0  0  0  0  0  0  0  0  0  0
   -2.9486   -2.2838    0.2541 O   0  0  0  0  0  0  0  0  0  0  0  0
  1  2  1  0
  2  3  1  0
  3  4  2  0
  4  5  1  0
  5  6  1  0
  6  7  1  0
  7  8  2  0
  5  9  2  0
  9 10  1  0
 10 11  2  0
 11 12  1  0
 11  3  1  0
M  END
>  <target>  (649) 
-1.56

$$$$

     RDKit          3D

 15 15  0  0  0  0  0  0  0  0999 V2000
   -2.2441    0.7496    1.1410 O   0  0  0  0  0  0  0  0  0  0  0  0
   -1.3227    1.0395    0.3829 C   0  0  0  0  0  0  0  0  0  0  0  0
   -1.2495    2.3082   -0.1275 N   0  0  0  0  0  0  0  0  0  0  0  0
   -0.6108    2.6335   -1.2831 C   0  0  0  0  0  0  0  0  0  0  0  0
   -0.9193    3.6316   -1.9253 O   0  0  0  0  0  0  0  0  0  0  0  0
    0.3193    1.7551   -1.7388 N   0  0  0  0  0  0  0  0  0  0  0  0
    0.2947    0.4276   -1.4115 C   0  0  0  0  0  0  0  0  0  0  0  0
    0.6579   -0.4083   -2.2356 O   0  0  0  0  0  0  0  0  0  0  0  0
   -0.1770    0.0979    0.0093 C   0  0  0  0  0  0  0  0  0  0  0  0
   -0.5911   -1.4151    0.0956 C   0  0  0  0  0  0  0  0  0  0  0  0
   -0.7952   -1.9575    1.5182 C   0  0  0  0  0  0  0  0  0  0  0  0
   -1.8398   -1.7412   -0.7437 C   0  0  0  0  0  0  0  0  0  0  0  0
    0.9931    0.4698    0.9734 C   0  0  0  0  0  0  0  0  0  0  0  0
    2.2713   -0.3017    0.7695 C   0  0  0  0  0  0  0  0  0  0  0  0
    3.4279    0.2547    0.3878 C   0  0  0  0  0  0  0  0  0  0  0  0
  1  2  2  0
  2  3  1  0
  3  4  1  0
  4  5  2  0
  4  6  1  0
  6  7  1  0
  7  8  2  0
  7  9  1  0
  9 10  1  0
 10 11  1  0
 10 12  1  0
  9 13  1  0
 13 14  1  0
 14 15  2  0
  9  2  1  0
M  END
>  <target>  (650) 
-1.7080000000000002

$$$$

     RDKit          3D

 16 19  0  0  0  0  0  0  0  0999 V2000
    1.4164   -3.1971   -0.3502 C   0  0  0  0  0  0  0  0  0  0  0  0
    0.0349   -3.0580   -0.2206 C   0  0  0  0  0  0  0  0  0  0  0  0
   -0.5455   -1.7888   -0.0799 C   0  0  0  0  0  0  0  0  0  0  0  0
   -1.9316   -1.6294    0.0516 C   0  0  0  0  0  0  0  0  0  0  0  0
   -2.4948   -0.3582    0.1908 C   0  0  0  0  0  0  0  0  0  0  0  0
   -1.6865    0.7866    0.2022 C   0  0  0  0  0  0  0  0  0  0  0  0
   -2.2366    2.0694    0.3411 C   0  0  0  0  0  0  0  0  0  0  0  0
   -1.4164    3.1971    0.3502 C   0  0  0  0  0  0  0  0  0  0  0  0
   -0.0349    3.0580    0.2206 C   0  0  0  0  0  0  0  0  0  0  0  0
    0.5455    1.7888    0.0799 C   0  0  0  0  0  0  0  0  0  0  0  0
    1.9316    1.6294   -0.0516 C   0  0  0  0  0  0  0  0  0  0  0  0
    2.4948    0.3582   -0.1908 C   0  0  0  0  0  0  0  0  0  0  0  0
    1.6865   -0.7866   -0.2022 C   0  0  0  0  0  0  0  0  0  0  0  0
    2.2366   -2.0694   -0.3411 C   0  0  0  0  0  0  0  0  0  0  0  0
    0.2856   -0.6446   -0.0706 C   0  0  0  0  0  0  0  0  0  0  0  0
   -0.2856    0.6446    0.0706 C   0  0  0  0  0  0  0  0  0  0  0  0
  1  2  2  0
  2  3  1  0
  3  4  2  0
  4  5  1  0
  5  6  2  0
  6  7  1  0
  7  8  2  0
  8  9  1  0
  9 10  2  0
 10 11  1  0
 11 12  2  0
 12 13  1  0
 13 14  2  0
 13 15  1  0
 15 16  2  0
 14  1  1  0
 15  3  1  0
 16  6  1  0
 16 10  1  0
M  END
>  <target>  (651) 
-6.176

$$$$

     RDKit          3D

  8  7  0  0  0  0  0  0  0  0999 V2000
   -2.8510    1.2845   -0.6586 C   0  0  0  0  0  0  0  0  0  0  0  0
   -2.0558    0.2912    0.1658 C   0  0  0  0  0  0  0  0  0  0  0  0
   -0.8021    0.0814   -0.4752 O   0  0  0  0  0  0  0  0  0  0  0  0
    0.0362   -0.8357    0.2234 C   0  0  0  0  0  0  0  0  0  0  0  0
   -0.2981   -2.2627   -0.1908 C   0  0  0  0  0  0  0  0  0  0  0  0
    1.4065   -0.6168   -0.1177 O   0  0  0  0  0  0  0  0  0  0  0  0
    1.8707    0.6585    0.3144 C   0  0  0  0  0  0  0  0  0  0  0  0
    3.3430    0.7711   -0.0301 C   0  0  0  0  0  0  0  0  0  0  0  0
  1  2  1  0
  2  3  1  0
  3  4  1  0
  4  5  1  0
  4  6  1  0
  6  7  1  0
  7  8  1  0
M  END
>  <target>  (652) 
-0.43

$$$$

     RDKit          3D

 16 17  0  0  0  0  0  0  0  0999 V2000
   -2.8114   -1.1877    0.4679 C   0  0  0  0  0  0  0  0  0  0  0  0
   -2.2331   -0.0641   -0.3811 C   0  0  0  0  0  0  0  0  0  0  0  0
   -3.3452    0.7748   -1.0178 C   0  0  0  0  0  0  0  0  0  0  0  0
   -1.2410   -0.5689   -1.4185 C   0  0  0  0  0  0  0  0  0  0  0  0
   -0.3865    0.5462   -1.7051 O   0  0  0  0  0  0  0  0  0  0  0  0
   -0.3686    1.3190   -0.5103 N   0  0  0  0  0  0  0  0  0  0  0  0
    0.9475    1.8014   -0.1185 C   0  0  0  0  0  0  0  0  0  0  0  0
    1.9101    0.6933    0.2493 C   0  0  0  0  0  0  0  0  0  0  0  0
    1.8643    0.1611    1.5527 C   0  0  0  0  0  0  0  0  0  0  0  0
    2.7133   -0.8779    1.9376 C   0  0  0  0  0  0  0  0  0  0  0  0
    3.6228   -1.4058    1.0271 C   0  0  0  0  0  0  0  0  0  0  0  0
    3.6818   -0.8940   -0.2683 C   0  0  0  0  0  0  0  0  0  0  0  0
    2.8315    0.1474   -0.6582 C   0  0  0  0  0  0  0  0  0  0  0  0
    2.9793    0.7196   -2.2817 Cl  0  0  0  0  0  0  0  0  0  0  0  0
   -1.3027    0.8314    0.3890 C   0  0  0  0  0  0  0  0  0  0  0  0
   -1.3837    1.0976    1.5788 O   0  0  0  0  0  0  0  0  0  0  0  0
  1  2  1  0
  2  3  1  0
  2  4  1  0
  4  5  1  0
  5  6  1  0
  6  7  1  0
  7  8  1  0
  8  9  2  0
  9 10  1  0
 10 11  2  0
 11 12  1  0
 12 13  2  0
 13 14  1  0
  6 15  1  0
 15 16  2  0
 15  2  1  0
 13  8  1  0
M  END
>  <target>  (653) 
-2.338

$$$$

     RDKit          3D

  8  7  0  0  0  0  0  0  0  0999 V2000
   -3.6906    0.2783   -0.3870 C   0  0  0  0  0  0  0  0  0  0  0  0
   -2.4210    0.4294    0.4355 C   0  0  0  0  0  0  0  0  0  0  0  0
   -1.1903   -0.0169   -0.3488 C   0  0  0  0  0  0  0  0  0  0  0  0
    0.0853    0.1328    0.4718 C   0  0  0  0  0  0  0  0  0  0  0  0
    1.1847   -0.3028   -0.3280 O   0  0  0  0  0  0  0  0  0  0  0  0
    2.4264   -0.1915    0.3798 C   0  0  0  0  0  0  0  0  0  0  0  0
    3.5393   -0.6670   -0.5475 C   0  0  0  0  0  0  0  0  0  0  0  0
    3.5727    0.1511   -1.7161 O   0  0  0  0  0  0  0  0  0  0  0  0
  1  2  1  0
  2  3  1  0
  3  4  1  0
  4  5  1  0
  5  6  1  0
  6  7  1  0
  7  8  1  0
M  END
>  <target>  (654) 
-0.42

$$$$

     RDKit          3D

 14 14  0  0  0  0  0  0  0  0999 V2000
    3.5974    0.1779    0.1597 Cl  0  0  0  0  0  0  0  0  0  0  0  0
    1.8587    0.0919    0.0825 C   0  0  0  0  0  0  0  0  0  0  0  0
    1.0915    1.2732    0.1697 C   0  0  0  0  0  0  0  0  0  0  0  0
    1.8801    2.8149    0.3541 Cl  0  0  0  0  0  0  0  0  0  0  0  0
   -0.3106    1.2074    0.1078 C   0  0  0  0  0  0  0  0  0  0  0  0
   -1.2723    2.6514    0.2134 Cl  0  0  0  0  0  0  0  0  0  0  0  0
   -0.9159   -0.0453   -0.0407 C   0  0  0  0  0  0  0  0  0  0  0  0
   -2.3522   -0.1163   -0.1044 N   0  0  0  0  0  0  0  0  0  0  0  0
   -2.9485   -0.2529    0.9698 O   0  0  0  0  0  0  0  0  0  0  0  0
   -2.8617   -0.0344   -1.2277 O   0  0  0  0  0  0  0  0  0  0  0  0
   -0.1795   -1.2316   -0.1296 C   0  0  0  0  0  0  0  0  0  0  0  0
   -0.9812   -2.7628   -0.3135 Cl  0  0  0  0  0  0  0  0  0  0  0  0
    1.2223   -1.1588   -0.0670 C   0  0  0  0  0  0  0  0  0  0  0  0
    2.1720   -2.6145   -0.1743 Cl  0  0  0  0  0  0  0  0  0  0  0  0
  1  2  1  0
  2  3  2  0
  3  4  1  0
  3  5  1  0
  5  6  1  0
  5  7  2  0
  7  8  1  0
  8  9  1  0
  8 10  2  0
  7 11  1  0
 11 12  1  0
 11 13  2  0
 13 14  1  0
 13  2  1  0
M  CHG  2   8   1   9  -1
M  END
>  <target>  (655) 
-5.82

$$$$

     RDKit          3D

 21 24  0  0  0  0  0  0  0  0999 V2000
    1.5191   -1.7527   -0.9257 C   0  0  0  0  0  0  0  0  0  0  0  0
    1.3926   -0.5450    0.0393 C   0  0  0  0  0  0  0  0  0  0  0  0
    2.1292   -0.8989    1.3640 C   0  0  0  0  0  0  0  0  0  0  0  0
    3.6450   -1.0276    1.2039 C   0  0  0  0  0  0  0  0  0  0  0  0
    4.2690    0.2051    0.5590 C   0  0  0  0  0  0  0  0  0  0  0  0
    5.6436   -0.0635    0.3091 O   0  0  0  0  0  0  0  0  0  0  0  0
    3.5752    0.5879   -0.7472 C   0  0  0  0  0  0  0  0  0  0  0  0
    2.0627    0.7398   -0.5434 C   0  0  0  0  0  0  0  0  0  0  0  0
    1.3723    1.2231   -1.8220 C   0  0  0  0  0  0  0  0  0  0  0  0
   -0.0959    1.5357   -1.5499 C   0  0  0  0  0  0  0  0  0  0  0  0
   -0.8504    0.3494   -0.9280 C   0  0  0  0  0  0  0  0  0  0  0  0
   -0.1219   -0.2096    0.3253 C   0  0  0  0  0  0  0  0  0  0  0  0
   -0.9197   -1.3930    0.9062 C   0  0  0  0  0  0  0  0  0  0  0  0
   -2.3478   -0.9922    1.2614 C   0  0  0  0  0  0  0  0  0  0  0  0
   -3.1199   -0.4060    0.0709 C   0  0  0  0  0  0  0  0  0  0  0  0
   -3.6008   -1.4919   -0.8922 C   0  0  0  0  0  0  0  0  0  0  0  0
   -2.3327    0.7029   -0.6669 C   0  0  0  0  0  0  0  0  0  0  0  0
   -2.5849    1.9583    0.1811 C   0  0  0  0  0  0  0  0  0  0  0  0
   -4.0637    1.8789    0.5421 C   0  0  0  0  0  0  0  0  0  0  0  0
   -4.2973    0.3921    0.6159 C   0  0  0  0  0  0  0  0  0  0  0  0
   -5.3206   -0.1068    1.0683 O   0  0  0  0  0  0  0  0  0  0  0  0
  1  2  1  0
  2  3  1  0
  3  4  1  0
  4  5  1  0
  5  6  1  0
  5  7  1  0
  7  8  1  0
  8  9  1  0
  9 10  1  0
 10 11  1  0
 11 12  1  0
 12 13  1  0
 13 14  1  0
 14 15  1  0
 15 16  1  0
 15 17  1  0
 17 18  1  0
 18 19  1  0
 19 20  1  0
 20 21  2  0
  8  2  1  0
 12  2  1  0
 17 11  1  0
 20 15  1  0
M  END
>  <target>  (656) 
-4.402

$$$$

     RDKit          3D

 19 20  0  0  0  0  0  0  0  0999 V2000
   -3.0124    2.5828    1.3531 F   0  0  0  0  0  0  0  0  0  0  0  0
   -3.7066    1.5082    0.8818 C   0  0  0  0  0  0  0  0  0  0  0  0
   -4.7628    2.0213    0.1925 F   0  0  0  0  0  0  0  0  0  0  0  0
   -4.2329    0.8948    1.9768 F   0  0  0  0  0  0  0  0  0  0  0  0
   -2.8505    0.5784    0.0591 C   0  0  0  0  0  0  0  0  0  0  0  0
   -3.3958   -0.1464   -1.0043 C   0  0  0  0  0  0  0  0  0  0  0  0
   -2.5894   -1.0083   -1.7401 C   0  0  0  0  0  0  0  0  0  0  0  0
   -1.2347   -1.1558   -1.4199 C   0  0  0  0  0  0  0  0  0  0  0  0
   -0.6556   -0.4527   -0.3571 C   0  0  0  0  0  0  0  0  0  0  0  0
   -1.4888    0.4063    0.3785 C   0  0  0  0  0  0  0  0  0  0  0  0
    0.7221   -0.5856   -0.0255 N   0  0  0  0  0  0  0  0  0  0  0  0
    1.3462    0.1665    1.0435 C   0  0  0  0  0  0  0  0  0  0  0  0
    2.8436    0.0377    0.7859 C   0  0  0  0  0  0  0  0  0  0  0  0
    3.3579    1.1013   -0.1914 C   0  0  0  0  0  0  0  0  0  0  0  0
    3.3235    2.7242    0.5435 Cl  0  0  0  0  0  0  0  0  0  0  0  0
    2.9514   -1.3493    0.1584 C   0  0  0  0  0  0  0  0  0  0  0  0
    3.0549   -2.6234    1.3996 Cl  0  0  0  0  0  0  0  0  0  0  0  0
    1.6315   -1.5083   -0.5765 C   0  0  0  0  0  0  0  0  0  0  0  0
    1.4567   -2.3229   -1.4705 O   0  0  0  0  0  0  0  0  0  0  0  0
  1  2  1  0
  2  3  1  0
  2  4  1  0
  2  5  1  0
  5  6  2  0
  6  7  1  0
  7  8  2  0
  8  9  1  0
  9 10  2  0
  9 11  1  0
 11 12  1  0
 12 13  1  0
 13 14  1  0
 14 15  1  0
 13 16  1  0
 16 17  1  0
 16 18  1  0
 18 19  2  0
 10  5  1  0
 18 11  1  0
M  END
>  <target>  (657) 
-4.047

$$$$

     RDKit          3D

 10 11  0  0  0  0  0  0  0  0999 V2000
   -2.2984   -0.7320   -0.1027 C   0  0  0  0  0  0  0  0  0  0  0  0
   -2.3875    0.6378    0.1180 C   0  0  0  0  0  0  0  0  0  0  0  0
   -1.2221    1.4019    0.2332 C   0  0  0  0  0  0  0  0  0  0  0  0
    0.0396    0.8306    0.1332 C   0  0  0  0  0  0  0  0  0  0  0  0
    1.1311    1.6085    0.2511 N   0  0  0  0  0  0  0  0  0  0  0  0
    2.3427    1.0192    0.1485 C   0  0  0  0  0  0  0  0  0  0  0  0
    2.5279   -0.3327   -0.0699 C   0  0  0  0  0  0  0  0  0  0  0  0
    1.3991   -1.1337   -0.1912 C   0  0  0  0  0  0  0  0  0  0  0  0
    0.1244   -0.5605   -0.0909 C   0  0  0  0  0  0  0  0  0  0  0  0
   -1.0454   -1.3324   -0.2073 C   0  0  0  0  0  0  0  0  0  0  0  0
  1  2  2  0
  2  3  1  0
  3  4  2  0
  4  5  1  0
  5  6  2  0
  6  7  1  0
  7  8  2  0
  8  9  1  0
  9 10  2  0
 10  1  1  0
  9  4  1  0
M  END
>  <target>  (658) 
-1.3

$$$$

     RDKit          3D

 13 13  0  0  0  0  0  0  0  0999 V2000
    3.7992   -0.8359    0.8756 C   0  0  0  0  0  0  0  0  0  0  0  0
    2.5474   -0.1958    0.6244 O   0  0  0  0  0  0  0  0  0  0  0  0
    1.5497   -1.0472    0.2849 C   0  0  0  0  0  0  0  0  0  0  0  0
    1.6452   -2.2607    0.1848 O   0  0  0  0  0  0  0  0  0  0  0  0
    0.2815   -0.3096    0.0395 C   0  0  0  0  0  0  0  0  0  0  0  0
    0.1917    1.0864    0.1597 C   0  0  0  0  0  0  0  0  0  0  0  0
   -1.0238    1.7127   -0.0837 C   0  0  0  0  0  0  0  0  0  0  0  0
   -1.1125    3.0695    0.0327 O   0  0  0  0  0  0  0  0  0  0  0  0
   -2.1421    0.9718   -0.4425 C   0  0  0  0  0  0  0  0  0  0  0  0
   -3.3238    1.6212   -0.6750 O   0  0  0  0  0  0  0  0  0  0  0  0
   -2.0587   -0.4100   -0.5628 C   0  0  0  0  0  0  0  0  0  0  0  0
   -3.1909   -1.0879   -0.9186 O   0  0  0  0  0  0  0  0  0  0  0  0
   -0.8528   -1.0603   -0.3243 C   0  0  0  0  0  0  0  0  0  0  0  0
  1  2  1  0
  2  3  1  0
  3  4  2  0
  3  5  1  0
  5  6  2  0
  6  7  1  0
  7  8  1  0
  7  9  2  0
  9 10  1  0
  9 11  1  0
 11 12  1  0
 11 13  2  0
 13  5  1  0
M  END
>  <target>  (659) 
-1.24

$$$$

     RDKit          3D

 22 24  0  0  0  0  0  0  0  0999 V2000
   -0.1414   -1.5074   -1.7213 O   0  0  0  0  0  0  0  0  0  0  0  0
   -0.0489   -0.6083   -0.5810 C   0  0  0  0  0  0  0  0  0  0  0  0
   -0.6153   -1.3565    0.6602 C   0  0  0  0  0  0  0  0  0  0  0  0
   -2.0153   -1.7215    0.5349 N   0  0  0  0  0  0  0  0  0  0  0  0
   -3.0332   -1.4691    1.3980 C   0  0  0  0  0  0  0  0  0  0  0  0
   -4.1431   -1.9889    0.9260 N   0  0  0  0  0  0  0  0  0  0  0  0
   -3.7483   -2.5482   -0.2541 C   0  0  0  0  0  0  0  0  0  0  0  0
   -2.4529   -2.3962   -0.5509 N   0  0  0  0  0  0  0  0  0  0  0  0
   -0.8572    0.6592   -0.9506 C   0  0  0  0  0  0  0  0  0  0  0  0
   -0.8259    1.7043    0.0429 N   0  0  0  0  0  0  0  0  0  0  0  0
   -0.1521    2.8835   -0.0055 C   0  0  0  0  0  0  0  0  0  0  0  0
   -0.3907    3.5664    1.0899 N   0  0  0  0  0  0  0  0  0  0  0  0
   -1.2406    2.7529    1.7823 C   0  0  0  0  0  0  0  0  0  0  0  0
   -1.5339    1.5953    1.1815 N   0  0  0  0  0  0  0  0  0  0  0  0
    1.4482   -0.2619   -0.4878 C   0  0  0  0  0  0  0  0  0  0  0  0
    2.2174   -0.1429   -1.6674 C   0  0  0  0  0  0  0  0  0  0  0  0
    3.5709    0.2019   -1.6220 C   0  0  0  0  0  0  0  0  0  0  0  0
    4.1753    0.4415   -0.3968 C   0  0  0  0  0  0  0  0  0  0  0  0
    5.4712    0.7750   -0.3528 F   0  0  0  0  0  0  0  0  0  0  0  0
    3.4524    0.3448    0.7801 C   0  0  0  0  0  0  0  0  0  0  0  0
    2.1043   -0.0018    0.7261 C   0  0  0  0  0  0  0  0  0  0  0  0
    1.4428   -0.0608    1.8875 F   0  0  0  0  0  0  0  0  0  0  0  0
  1  2  1  0
  2  3  1  0
  3  4  1  0
  4  5  1  0
  5  6  2  0
  6  7  1  0
  7  8  2  0
  2  9  1  0
  9 10  1  0
 10 11  1  0
 11 12  2  0
 12 13  1  0
 13 14  2  0
  2 15  1  0
 15 16  2  0
 16 17  1  0
 17 18  2  0
 18 19  1  0
 18 20  1  0
 20 21  2  0
 21 22  1  0
  8  4  1  0
 14 10  1  0
 21 15  1  0
M  END
>  <target>  (660) 
-1.8

$$$$

     RDKit          3D

 11 12  0  0  0  0  0  0  0  0999 V2000
   -3.3654   -1.4617   -0.3161 Cl  0  0  0  0  0  0  0  0  0  0  0  0
   -1.8870   -0.5976   -0.1336 C   0  0  0  0  0  0  0  0  0  0  0  0
   -1.9257    0.7860    0.1382 C   0  0  0  0  0  0  0  0  0  0  0  0
   -0.7407    1.5158    0.2917 C   0  0  0  0  0  0  0  0  0  0  0  0
    0.4448    0.8254    0.1661 C   0  0  0  0  0  0  0  0  0  0  0  0
    1.7159    1.3634    0.2827 O   0  0  0  0  0  0  0  0  0  0  0  0
    2.5326    0.2448    0.0697 C   0  0  0  0  0  0  0  0  0  0  0  0
    3.7540    0.2781    0.0866 O   0  0  0  0  0  0  0  0  0  0  0  0
    1.7809   -0.8843   -0.1587 N   0  0  0  0  0  0  0  0  0  0  0  0
    0.4649   -0.5285   -0.1000 C   0  0  0  0  0  0  0  0  0  0  0  0
   -0.6749   -1.2804   -0.2575 C   0  0  0  0  0  0  0  0  0  0  0  0
  1  2  1  0
  2  3  2  0
  3  4  1  0
  4  5  2  0
  5  6  1  0
  6  7  1  0
  7  8  2  0
  7  9  1  0
  9 10  1  0
 10 11  2  0
 10  5  1  0
 11  2  1  0
M  END
>  <target>  (661) 
-2.8310000000000004

$$$$

     RDKit          3D

 19 20  0  0  0  0  0  0  0  0999 V2000
    5.2869   -0.0718    0.0393 Cl  0  0  0  0  0  0  0  0  0  0  0  0
    3.5672   -0.0471    0.0241 C   0  0  0  0  0  0  0  0  0  0  0  0
    2.8600   -0.6172    1.0797 C   0  0  0  0  0  0  0  0  0  0  0  0
    1.4630   -0.5993    1.0713 C   0  0  0  0  0  0  0  0  0  0  0  0
    0.7567   -0.0104    0.0059 C   0  0  0  0  0  0  0  0  0  0  0  0
    1.4975    0.5597   -1.0504 C   0  0  0  0  0  0  0  0  0  0  0  0
    0.7097    1.3046   -2.4000 Cl  0  0  0  0  0  0  0  0  0  0  0  0
    2.8942    0.5418   -1.0420 C   0  0  0  0  0  0  0  0  0  0  0  0
   -0.7242   -0.0070    0.0254 C   0  0  0  0  0  0  0  0  0  0  0  0
   -1.4600   -1.0673   -0.5548 C   0  0  0  0  0  0  0  0  0  0  0  0
   -0.5968   -2.4046   -1.2720 Cl  0  0  0  0  0  0  0  0  0  0  0  0
   -2.8683   -1.0558   -0.5571 C   0  0  0  0  0  0  0  0  0  0  0  0
   -3.7490   -2.3758   -1.2768 Cl  0  0  0  0  0  0  0  0  0  0  0  0
   -3.5612    0.0203    0.0250 C   0  0  0  0  0  0  0  0  0  0  0  0
   -5.3040    0.0364    0.0258 Cl  0  0  0  0  0  0  0  0  0  0  0  0
   -2.8480    1.0810    0.6105 C   0  0  0  0  0  0  0  0  0  0  0  0
   -3.7034    2.4125    1.3395 Cl  0  0  0  0  0  0  0  0  0  0  0  0
   -1.4397    1.0647    0.6100 C   0  0  0  0  0  0  0  0  0  0  0  0
   -0.5513    2.3778    1.3410 Cl  0  0  0  0  0  0  0  0  0  0  0  0
  1  2  1  0
  2  3  2  0
  3  4  1  0
  4  5  2  0
  5  6  1  0
  6  7  1  0
  6  8  2  0
  5  9  1  0
  9 10  2  0
 10 11  1  0
 10 12  1  0
 12 13  1  0
 12 14  2  0
 14 15  1  0
 14 16  1  0
 16 17  1  0
 16 18  2  0
 18 19  1  0
  8  2  1  0
 18  9  1  0
M  END
>  <target>  (662) 
-7.92

$$$$

     RDKit          3D

 10 10  0  0  0  0  0  0  0  0999 V2000
   -2.3204   -1.1999   -0.1735 O   0  0  0  0  0  0  0  0  0  0  0  0
   -1.2343   -0.6322   -0.1826 C   0  0  0  0  0  0  0  0  0  0  0  0
   -0.0694   -1.3353   -0.2332 N   0  0  0  0  0  0  0  0  0  0  0  0
    1.1904   -0.8472    0.0071 C   0  0  0  0  0  0  0  0  0  0  0  0
    2.1590   -1.5679    0.1846 O   0  0  0  0  0  0  0  0  0  0  0  0
    1.2831    0.6653    0.0693 C   0  0  0  0  0  0  0  0  0  0  0  0
    2.3621    1.2320    0.0205 O   0  0  0  0  0  0  0  0  0  0  0  0
   -0.0102    1.4520    0.1622 C   0  0  0  0  0  0  0  0  0  0  0  0
   -0.0346    2.6332    0.4679 O   0  0  0  0  0  0  0  0  0  0  0  0
   -1.1444    0.7235   -0.0944 N   0  0  0  0  0  0  0  0  0  0  0  0
  1  2  2  0
  2  3  1  0
  3  4  1  0
  4  5  2  0
  4  6  1  0
  6  7  2  0
  6  8  1  0
  8  9  2  0
  8 10  1  0
 10  2  1  0
M  END
>  <target>  (663) 
-1.25

$$$$

     RDKit          3D

  5  4  0  0  0  0  0  0  0  0999 V2000
   -1.9224    1.2680   -0.5631 Cl  0  0  0  0  0  0  0  0  0  0  0  0
   -1.1983   -0.3440   -0.3539 C   0  0  0  0  0  0  0  0  0  0  0  0
    0.0078   -0.3040    0.5785 C   0  0  0  0  0  0  0  0  0  0  0  0
    1.1944    0.4998    0.0575 C   0  0  0  0  0  0  0  0  0  0  0  0
    1.8960   -0.2342   -1.4039 Cl  0  0  0  0  0  0  0  0  0  0  0  0
  1  2  1  0
  2  3  1  0
  3  4  1  0
  4  5  1  0
M  END
>  <target>  (664) 
-1.62

$$$$

     RDKit          3D

  8  8  0  0  0  0  0  0  0  0999 V2000
   -2.0712   -1.7816   -0.0191 F   0  0  0  0  0  0  0  0  0  0  0  0
   -1.0723   -0.8891   -0.0100 C   0  0  0  0  0  0  0  0  0  0  0  0
   -1.3716    0.4700   -0.0188 C   0  0  0  0  0  0  0  0  0  0  0  0
   -0.3354    1.4033   -0.0094 C   0  0  0  0  0  0  0  0  0  0  0  0
    0.9915    0.9672    0.0087 C   0  0  0  0  0  0  0  0  0  0  0  0
    1.2735   -0.4008    0.0173 C   0  0  0  0  0  0  0  0  0  0  0  0
    3.0710   -0.9859    0.0418 Br  0  0  0  0  0  0  0  0  0  0  0  0
    0.2431   -1.3370    0.0080 C   0  0  0  0  0  0  0  0  0  0  0  0
  1  2  1  0
  2  3  2  0
  3  4  1  0
  4  5  2  0
  5  6  1  0
  6  7  1  0
  6  8  2  0
  8  2  1  0
M  END
>  <target>  (665) 
-2.67

$$$$

     RDKit          3D

  8  8  0  0  0  0  0  0  0  0999 V2000
   -3.0884    0.4719    0.0356 Cl  0  0  0  0  0  0  0  0  0  0  0  0
   -1.3880    0.2121    0.0160 C   0  0  0  0  0  0  0  0  0  0  0  0
   -0.5204    1.3039    0.0464 C   0  0  0  0  0  0  0  0  0  0  0  0
    0.8605    1.0936    0.0305 C   0  0  0  0  0  0  0  0  0  0  0  0
    1.3607   -0.2079   -0.0157 C   0  0  0  0  0  0  0  0  0  0  0  0
    3.2291   -0.4934   -0.0372 Br  0  0  0  0  0  0  0  0  0  0  0  0
    0.4938   -1.3006   -0.0462 C   0  0  0  0  0  0  0  0  0  0  0  0
   -0.8869   -1.0889   -0.0302 C   0  0  0  0  0  0  0  0  0  0  0  0
  1  2  1  0
  2  3  2  0
  3  4  1  0
  4  5  2  0
  5  6  1  0
  5  7  1  0
  7  8  2  0
  8  2  1  0
M  END
>  <target>  (666) 
-3.63

$$$$

     RDKit          3D

  6  5  0  0  0  0  0  0  0  0999 V2000
   -1.2269    1.1712   -0.4317 C   0  0  0  0  0  0  0  0  0  0  0  0
   -0.7446    0.0379    0.4780 C   0  0  0  0  0  0  0  0  0  0  0  0
   -1.6144   -1.2040    0.2552 C   0  0  0  0  0  0  0  0  0  0  0  0
    0.7667   -0.2882    0.3369 C   0  0  0  0  0  0  0  0  0  0  0  0
    1.1862   -0.7087   -1.0743 C   0  0  0  0  0  0  0  0  0  0  0  0
    1.6431    0.8780    0.8064 C   0  0  0  0  0  0  0  0  0  0  0  0
  1  2  1  0
  2  3  1  0
  2  4  1  0
  4  5  1  0
  4  6  1  0
M  END
>  <target>  (667) 
-3.65

$$$$

     RDKit          3D

  4  3  0  0  0  0  0  0  0  0999 V2000
    1.5703    0.3516    0.0988 C   0  0  0  0  0  0  0  0  0  0  0  0
    0.3891   -0.5967    0.2336 C   0  0  0  0  0  0  0  0  0  0  0  0
   -0.7981   -0.1078   -0.5432 C   0  0  0  0  0  0  0  0  0  0  0  0
   -1.9762    0.2104    0.0077 C   0  0  0  0  0  0  0  0  0  0  0  0
  1  2  1  0
  2  3  1  0
  3  4  2  0
M  END
>  <target>  (668) 
-1.94

$$$$

     RDKit          3D

 18 19  0  0  0  0  0  0  0  0999 V2000
   -3.6301   -2.0634   -2.0679 Cl  0  0  0  0  0  0  0  0  0  0  0  0
   -2.8367   -0.9887   -0.9846 C   0  0  0  0  0  0  0  0  0  0  0  0
   -3.5879   -0.2215   -0.0987 C   0  0  0  0  0  0  0  0  0  0  0  0
   -2.9421    0.6477    0.7810 C   0  0  0  0  0  0  0  0  0  0  0  0
   -1.5469    0.7474    0.7709 C   0  0  0  0  0  0  0  0  0  0  0  0
   -0.8105    1.8377    1.8943 Cl  0  0  0  0  0  0  0  0  0  0  0  0
   -0.7745   -0.0212   -0.1231 C   0  0  0  0  0  0  0  0  0  0  0  0
   -1.4442   -0.8946   -1.0002 C   0  0  0  0  0  0  0  0  0  0  0  0
    0.6972    0.0560   -0.1665 C   0  0  0  0  0  0  0  0  0  0  0  0
    1.4399   -0.8272    0.6335 C   0  0  0  0  0  0  0  0  0  0  0  0
    2.8367   -0.7920    0.6430 C   0  0  0  0  0  0  0  0  0  0  0  0
    3.6414   -1.9285    1.6701 Cl  0  0  0  0  0  0  0  0  0  0  0  0
    3.5280    0.1308   -0.1534 C   0  0  0  0  0  0  0  0  0  0  0  0
    5.2666    0.1603   -0.1318 Cl  0  0  0  0  0  0  0  0  0  0  0  0
    2.8034    1.0226   -0.9658 C   0  0  0  0  0  0  0  0  0  0  0  0
    3.6469    2.1721   -1.9667 Cl  0  0  0  0  0  0  0  0  0  0  0  0
    1.3932    0.9836   -0.9722 C   0  0  0  0  0  0  0  0  0  0  0  0
    0.4818    2.0750   -1.9792 Cl  0  0  0  0  0  0  0  0  0  0  0  0
  1  2  1  0
  2  3  2  0
  3  4  1  0
  4  5  2  0
  5  6  1  0
  5  7  1  0
  7  8  2  0
  7  9  1  0
  9 10  2  0
 10 11  1  0
 11 12  1  0
 11 13  2  0
 13 14  1  0
 13 15  1  0
 15 16  1  0
 15 17  2  0
 17 18  1  0
  8  2  1  0
 17  9  1  0
M  END
>  <target>  (669) 
-7.68

$$$$

     RDKit          3D

  8  8  0  0  0  0  0  0  0  0999 V2000
    2.2868   -0.2169   -0.2608 N   0  0  0  0  0  0  0  0  0  0  0  0
    0.9243   -0.1666   -0.1492 C   0  0  0  0  0  0  0  0  0  0  0  0
    0.2530    1.1432    0.0275 C   0  0  0  0  0  0  0  0  0  0  0  0
   -1.0740    1.0996    0.1332 C   0  0  0  0  0  0  0  0  0  0  0  0
   -1.7193   -0.0980    0.0788 N   0  0  0  0  0  0  0  0  0  0  0  0
   -1.0783   -1.3029   -0.0888 C   0  0  0  0  0  0  0  0  0  0  0  0
   -1.7485   -2.3311   -0.1264 O   0  0  0  0  0  0  0  0  0  0  0  0
    0.2892   -1.2978   -0.1998 N   0  0  0  0  0  0  0  0  0  0  0  0
  1  2  1  0
  2  3  1  0
  3  4  2  0
  4  5  1  0
  5  6  1  0
  6  7  2  0
  6  8  1  0
  8  2  2  0
M  END
>  <target>  (670) 
-1.155

$$$$

     RDKit          3D

  8  7  0  0  0  0  0  0  0  0999 V2000
   -1.4330    0.3293    1.0843 F   0  0  0  0  0  0  0  0  0  0  0  0
   -0.7817   -0.1342   -0.0211 C   0  0  0  0  0  0  0  0  0  0  0  0
   -1.0940   -1.4597   -0.1004 F   0  0  0  0  0  0  0  0  0  0  0  0
   -1.4748    0.6825   -1.4527 Cl  0  0  0  0  0  0  0  0  0  0  0  0
    0.7455    0.0500    0.1378 C   0  0  0  0  0  0  0  0  0  0  0  0
    1.1653   -0.6125    1.2585 F   0  0  0  0  0  0  0  0  0  0  0  0
    1.2088    1.7731    0.3420 Cl  0  0  0  0  0  0  0  0  0  0  0  0
    1.6639   -0.6286   -1.2483 Cl  0  0  0  0  0  0  0  0  0  0  0  0
  1  2  1  0
  2  3  1  0
  2  4  1  0
  2  5  1  0
  5  6  1  0
  5  7  1  0
  5  8  1  0
M  END
>  <target>  (671) 
-3.04

$$$$

     RDKit          3D

  4  3  0  0  0  0  0  0  0  0999 V2000
   -0.9472   -0.3392    0.0334 C   0  0  0  0  0  0  0  0  0  0  0  0
    0.2636    0.5782    0.0334 C   0  0  0  0  0  0  0  0  0  0  0  0
    1.5087   -0.1842   -0.1171 C   0  0  0  0  0  0  0  0  0  0  0  0
    2.4942   -0.7850   -0.2360 N   0  0  0  0  0  0  0  0  0  0  0  0
  1  2  1  0
  2  3  1  0
  3  4  3  0
M  END
>  <target>  (672) 
0.28

$$$$

     RDKit          3D

 18 19  0  0  0  0  0  0  0  0999 V2000
    1.9557   -3.1525   -0.6996 Cl  0  0  0  0  0  0  0  0  0  0  0  0
    0.6238   -2.0853   -1.2637 C   0  0  0  0  0  0  0  0  0  0  0  0
   -0.6235   -3.1439   -2.0057 Cl  0  0  0  0  0  0  0  0  0  0  0  0
    0.0411   -1.2230   -0.1068 C   0  0  0  0  0  0  0  0  0  0  0  0
   -1.1625   -0.3428   -0.4797 C   0  0  0  0  0  0  0  0  0  0  0  0
   -2.1599   -0.1168    0.4879 C   0  0  0  0  0  0  0  0  0  0  0  0
   -3.2641    0.6914    0.2071 C   0  0  0  0  0  0  0  0  0  0  0  0
   -3.3820    1.2891   -1.0431 C   0  0  0  0  0  0  0  0  0  0  0  0
   -4.7392    2.2865   -1.3921 Cl  0  0  0  0  0  0  0  0  0  0  0  0
   -2.4034    1.0874   -2.0125 C   0  0  0  0  0  0  0  0  0  0  0  0
   -1.2969    0.2792   -1.7323 C   0  0  0  0  0  0  0  0  0  0  0  0
    1.1174   -0.3710    0.5832 C   0  0  0  0  0  0  0  0  0  0  0  0
    1.8322    0.5906   -0.1624 C   0  0  0  0  0  0  0  0  0  0  0  0
    2.8200    1.3801    0.4305 C   0  0  0  0  0  0  0  0  0  0  0  0
    3.1153    1.2296    1.7803 C   0  0  0  0  0  0  0  0  0  0  0  0
    2.4196    0.2910    2.5386 C   0  0  0  0  0  0  0  0  0  0  0  0
    1.4277   -0.5028    1.9504 C   0  0  0  0  0  0  0  0  0  0  0  0
    0.6251   -1.6320    2.9847 Cl  0  0  0  0  0  0  0  0  0  0  0  0
  1  2  1  0
  2  3  1  0
  2  4  1  0
  4  5  1  0
  5  6  2  0
  6  7  1  0
  7  8  2  0
  8  9  1  0
  8 10  1  0
 10 11  2  0
  4 12  1  0
 12 13  2  0
 13 14  1  0
 14 15  2  0
 15 16  1  0
 16 17  2  0
 17 18  1  0
 11  5  1  0
 17 12  1  0
M  END
>  <target>  (673) 
-6.51

$$$$

     RDKit          3D

 11 11  0  0  0  0  0  0  0  0999 V2000
    2.7613   -0.0925   -0.1920 C   0  0  0  0  0  0  0  0  0  0  0  0
    1.5967    0.7242   -0.1885 O   0  0  0  0  0  0  0  0  0  0  0  0
    0.3888    0.1078   -0.0190 C   0  0  0  0  0  0  0  0  0  0  0  0
    0.2214   -1.2455    0.2912 C   0  0  0  0  0  0  0  0  0  0  0  0
   -1.0606   -1.7821    0.4789 C   0  0  0  0  0  0  0  0  0  0  0  0
   -2.1942   -0.9765    0.3653 C   0  0  0  0  0  0  0  0  0  0  0  0
   -2.0525    0.3732    0.0580 C   0  0  0  0  0  0  0  0  0  0  0  0
   -0.7653    0.8935   -0.1347 C   0  0  0  0  0  0  0  0  0  0  0  0
   -0.6532    2.2990   -0.4671 N   0  0  0  0  0  0  0  0  0  0  0  0
   -1.0478    3.1084    0.3849 O   0  0  0  0  0  0  0  0  0  0  0  0
   -0.2297    2.5880   -1.5948 O   0  0  0  0  0  0  0  0  0  0  0  0
  1  2  1  0
  2  3  1  0
  3  4  2  0
  4  5  1  0
  5  6  2  0
  6  7  1  0
  7  8  2  0
  8  9  1  0
  9 10  1  0
  9 11  2  0
  8  3  1  0
M  CHG  2   9   1  10  -1
M  END
>  <target>  (674) 
-1.96

$$$$

     RDKit          3D

 21 24  0  0  0  0  0  0  0  0999 V2000
   -3.1198    2.0575    0.3555 C   0  0  0  0  0  0  0  0  0  0  0  0
   -2.8699    0.6955   -0.2976 C   0  0  0  0  0  0  0  0  0  0  0  0
   -1.9718    0.8224   -1.5342 C   0  0  0  0  0  0  0  0  0  0  0  0
   -0.4771    0.8482   -1.2115 C   0  0  0  0  0  0  0  0  0  0  0  0
   -0.0483   -0.4104   -0.4302 C   0  0  0  0  0  0  0  0  0  0  0  0
   -0.8495   -0.4956    0.8955 C   0  0  0  0  0  0  0  0  0  0  0  0
   -0.3508    0.5400    1.9217 C   0  0  0  0  0  0  0  0  0  0  0  0
    1.1374    0.6512    1.9968 C   0  0  0  0  0  0  0  0  0  0  0  0
    1.9857    0.1463    1.0855 C   0  0  0  0  0  0  0  0  0  0  0  0
    3.4836    0.2473    1.2962 C   0  0  0  0  0  0  0  0  0  0  0  0
    4.2239    0.7466    0.0544 C   0  0  0  0  0  0  0  0  0  0  0  0
    5.6289    0.6465    0.2765 O   0  0  0  0  0  0  0  0  0  0  0  0
    3.8481   -0.0697   -1.1802 C   0  0  0  0  0  0  0  0  0  0  0  0
    2.3339   -0.0642   -1.3935 C   0  0  0  0  0  0  0  0  0  0  0  0
    1.5102   -0.5759   -0.1759 C   0  0  0  0  0  0  0  0  0  0  0  0
    1.7897   -2.0928    0.0139 C   0  0  0  0  0  0  0  0  0  0  0  0
   -2.3793   -0.3821    0.7035 C   0  0  0  0  0  0  0  0  0  0  0  0
   -2.9840   -1.6897    0.1629 C   0  0  0  0  0  0  0  0  0  0  0  0
   -4.3957   -1.3137   -0.2556 C   0  0  0  0  0  0  0  0  0  0  0  0
   -4.2097    0.1011   -0.7333 C   0  0  0  0  0  0  0  0  0  0  0  0
   -5.0515    0.7001   -1.3927 O   0  0  0  0  0  0  0  0  0  0  0  0
  1  2  1  0
  2  3  1  0
  3  4  1  0
  4  5  1  0
  5  6  1  0
  6  7  1  0
  7  8  1  0
  8  9  2  0
  9 10  1  0
 10 11  1  0
 11 12  1  0
 11 13  1  0
 13 14  1  0
 14 15  1  0
 15 16  1  0
  6 17  1  0
 17 18  1  0
 18 19  1  0
 19 20  1  0
 20 21  2  0
 15  5  1  0
 15  9  1  0
 17  2  1  0
 20  2  1  0
M  END
>  <target>  (675) 
-4.12

$$$$

     RDKit          3D

 18 20  0  0  0  0  0  0  0  0999 V2000
   -2.8700    1.7365   -0.2942 C   0  0  0  0  0  0  0  0  0  0  0  0
   -1.9442    0.7258    0.3182 C   0  0  0  0  0  0  0  0  0  0  0  0
   -2.5256   -0.3244    1.2453 C   0  0  0  0  0  0  0  0  0  0  0  0
   -1.9778   -0.7391   -0.1068 C   0  0  0  0  0  0  0  0  0  0  0  0
   -2.9409   -1.2236   -1.1524 C   0  0  0  0  0  0  0  0  0  0  0  0
   -0.5316   -1.1355   -0.2160 C   0  0  0  0  0  0  0  0  0  0  0  0
   -0.2394   -2.2762   -0.5329 O   0  0  0  0  0  0  0  0  0  0  0  0
    0.2727   -0.0451    0.0716 N   0  0  0  0  0  0  0  0  0  0  0  0
   -0.4834    1.0574    0.4337 C   0  0  0  0  0  0  0  0  0  0  0  0
   -0.1414    2.1563    0.8369 O   0  0  0  0  0  0  0  0  0  0  0  0
    1.7090   -0.0657    0.0478 C   0  0  0  0  0  0  0  0  0  0  0  0
    2.4307   -1.2661   -0.0767 C   0  0  0  0  0  0  0  0  0  0  0  0
    3.8310   -1.2776   -0.1017 C   0  0  0  0  0  0  0  0  0  0  0  0
    4.6685   -2.7755   -0.2462 Cl  0  0  0  0  0  0  0  0  0  0  0  0
    4.5551   -0.0987   -0.0077 C   0  0  0  0  0  0  0  0  0  0  0  0
    3.8632    1.0969    0.1117 C   0  0  0  0  0  0  0  0  0  0  0  0
    4.7402    2.5752    0.2190 Cl  0  0  0  0  0  0  0  0  0  0  0  0
    2.4633    1.1180    0.1394 C   0  0  0  0  0  0  0  0  0  0  0  0
  1  2  1  0
  2  3  1  0
  3  4  1  0
  4  5  1  0
  4  6  1  0
  6  7  2  0
  6  8  1  0
  8  9  1  0
  9 10  2  0
  8 11  1  0
 11 12  2  0
 12 13  1  0
 13 14  1  0
 13 15  2  0
 15 16  1  0
 16 17  1  0
 16 18  2  0
  9  2  1  0
  4  2  1  0
 18 11  1  0
M  END
>  <target>  (676) 
-4.8

$$$$

     RDKit          3D

 22 27  0  0  0  0  0  0  0  0999 V2000
   -2.2735   -3.2317    0.2570 C   0  0  0  0  0  0  0  0  0  0  0  0
   -3.1748   -2.1783    0.2262 C   0  0  0  0  0  0  0  0  0  0  0  0
   -2.7151   -0.8620    0.1366 C   0  0  0  0  0  0  0  0  0  0  0  0
   -3.6300    0.1962    0.1059 C   0  0  0  0  0  0  0  0  0  0  0  0
   -3.1889    1.5141    0.0168 C   0  0  0  0  0  0  0  0  0  0  0  0
   -1.8226    1.8016   -0.0436 C   0  0  0  0  0  0  0  0  0  0  0  0
   -1.3793    3.1254   -0.1331 C   0  0  0  0  0  0  0  0  0  0  0  0
   -0.0175    3.4133   -0.1934 C   0  0  0  0  0  0  0  0  0  0  0  0
    0.9286    2.3832   -0.1654 C   0  0  0  0  0  0  0  0  0  0  0  0
    2.2944    2.6733   -0.2259 C   0  0  0  0  0  0  0  0  0  0  0  0
    3.2361    1.6478   -0.1980 C   0  0  0  0  0  0  0  0  0  0  0  0
    2.8328    0.3109   -0.1090 C   0  0  0  0  0  0  0  0  0  0  0  0
    3.7908   -0.7057   -0.0822 C   0  0  0  0  0  0  0  0  0  0  0  0
    3.3981   -2.0327    0.0059 C   0  0  0  0  0  0  0  0  0  0  0  0
    2.0416   -2.3533    0.0679 C   0  0  0  0  0  0  0  0  0  0  0  0
    1.0258   -1.3652    0.0445 C   0  0  0  0  0  0  0  0  0  0  0  0
   -0.3790   -1.6622    0.1067 C   0  0  0  0  0  0  0  0  0  0  0  0
   -0.9032   -2.9759    0.1982 C   0  0  0  0  0  0  0  0  0  0  0  0
   -1.3193   -0.5987    0.0766 C   0  0  0  0  0  0  0  0  0  0  0  0
   -0.8801    0.7435   -0.0139 C   0  0  0  0  0  0  0  0  0  0  0  0
    0.5001    1.0353   -0.0750 C   0  0  0  0  0  0  0  0  0  0  0  0
    1.4501   -0.0133   -0.0460 C   0  0  0  0  0  0  0  0  0  0  0  0
  1  2  2  0
  2  3  1  0
  3  4  2  0
  4  5  1  0
  5  6  2  0
  6  7  1  0
  7  8  2  0
  8  9  1  0
  9 10  2  0
 10 11  1  0
 11 12  2  0
 12 13  1  0
 13 14  2  0
 14 15  1  0
 15 16  2  0
 16 17  1  0
 17 18  2  0
 17 19  1  0
 19 20  2  0
 20 21  1  0
 21 22  2  0
 18  1  1  0
 19  3  1  0
 20  6  1  0
 21  9  1  0
 22 12  1  0
 22 16  1  0
M  END
>  <target>  (677) 
-9.017999999999999

$$$$

     RDKit          3D

 17 17  0  0  0  0  0  0  0  0999 V2000
    2.3139   -0.2808   -1.8649 C   0  0  0  0  0  0  0  0  0  0  0  0
    2.5125    0.3201   -0.4786 C   0  0  0  0  0  0  0  0  0  0  0  0
    1.6068   -0.3222    0.5934 C   0  0  0  0  0  0  0  0  0  0  0  0
    1.9853    0.1917    1.9890 C   0  0  0  0  0  0  0  0  0  0  0  0
    0.1183   -0.1004    0.3269 C   0  0  0  0  0  0  0  0  0  0  0  0
   -0.3993    1.2094    0.2773 C   0  0  0  0  0  0  0  0  0  0  0  0
   -1.7612    1.4332    0.0316 C   0  0  0  0  0  0  0  0  0  0  0  0
   -2.6353    0.3606   -0.1687 C   0  0  0  0  0  0  0  0  0  0  0  0
   -2.1306   -0.9484   -0.1206 C   0  0  0  0  0  0  0  0  0  0  0  0
   -3.0641   -2.0614   -0.3337 N   0  0  0  0  0  0  0  0  0  0  0  0
   -4.2535   -1.7907   -0.5433 O   0  0  0  0  0  0  0  0  0  0  0  0
   -2.6024   -3.2126   -0.2907 O   0  0  0  0  0  0  0  0  0  0  0  0
   -0.7629   -1.1832    0.1257 C   0  0  0  0  0  0  0  0  0  0  0  0
   -0.2094   -2.4361    0.1834 O   0  0  0  0  0  0  0  0  0  0  0  0
   -2.2741    2.8102   -0.0158 N   0  0  0  0  0  0  0  0  0  0  0  0
   -1.4673    3.7322    0.1641 O   0  0  0  0  0  0  0  0  0  0  0  0
   -3.4835    2.9633   -0.2332 O   0  0  0  0  0  0  0  0  0  0  0  0
  1  2  1  0
  2  3  1  0
  3  4  1  0
  3  5  1  0
  5  6  2  0
  6  7  1  0
  7  8  2  0
  8  9  1  0
  9 10  1  0
 10 11  1  0
 10 12  2  0
  9 13  2  0
 13 14  1  0
  7 15  1  0
 15 16  1  0
 15 17  2  0
 13  5  1  0
M  CHG  4  10   1  11  -1  15   1  16  -1
M  END
>  <target>  (678) 
-3.38

$$$$

     RDKit          3D

 14 15  0  0  0  0  0  0  0  0999 V2000
    0.9632   -1.2434    1.3870 C   0  0  0  0  0  0  0  0  0  0  0  0
    1.3184   -0.3817    0.2743 C   0  0  0  0  0  0  0  0  0  0  0  0
    2.6797   -0.2513    0.1745 O   0  0  0  0  0  0  0  0  0  0  0  0
    3.2340    0.5397   -0.8650 C   0  0  0  0  0  0  0  0  0  0  0  0
    0.3443    0.1484   -0.5047 C   0  0  0  0  0  0  0  0  0  0  0  0
    0.6209    0.8292   -1.6786 O   0  0  0  0  0  0  0  0  0  0  0  0
    0.1546    2.1775   -1.6710 C   0  0  0  0  0  0  0  0  0  0  0  0
   -1.1123   -0.1895   -0.2525 C   0  0  0  0  0  0  0  0  0  0  0  0
   -1.8044    0.7945    0.6766 C   0  0  0  0  0  0  0  0  0  0  0  0
   -1.6515    2.0056    0.7126 O   0  0  0  0  0  0  0  0  0  0  0  0
   -2.7197    0.1404    1.4562 O   0  0  0  0  0  0  0  0  0  0  0  0
   -2.6824   -1.2542    1.1590 C   0  0  0  0  0  0  0  0  0  0  0  0
   -1.3418   -1.5056    0.4956 C   0  0  0  0  0  0  0  0  0  0  0  0
   -0.2505   -1.8022    1.4976 C   0  0  0  0  0  0  0  0  0  0  0  0
  1  2  1  0
  2  3  1  0
  3  4  1  0
  2  5  2  0
  5  6  1  0
  6  7  1  0
  5  8  1  0
  8  9  1  0
  9 10  2  0
  9 11  1  0
 11 12  1  0
 12 13  1  0
 13 14  1  0
 14  1  2  0
 13  8  1  0
M  END
>  <target>  (679) 
-1.899

$$$$

     RDKit          3D

  6  5  0  0  0  0  0  0  0  0999 V2000
   -1.4688   -0.2782    1.6003 O   0  0  0  0  0  0  0  0  0  0  0  0
   -1.1335   -1.0141    0.4244 C   0  0  0  0  0  0  0  0  0  0  0  0
   -0.2117   -0.1869   -0.4682 C   0  0  0  0  0  0  0  0  0  0  0  0
   -0.8724    1.0529   -0.7783 O   0  0  0  0  0  0  0  0  0  0  0  0
    1.1212    0.1356    0.2113 C   0  0  0  0  0  0  0  0  0  0  0  0
    1.9041    0.9209   -0.6943 O   0  0  0  0  0  0  0  0  0  0  0  0
  1  2  1  0
  2  3  1  0
  3  4  1  0
  3  5  1  0
  5  6  1  0
M  END
>  <target>  (680) 
1.12

$$$$

     RDKit          3D

  9  9  0  0  0  0  0  0  0  0999 V2000
   -2.6399    0.3737    0.0562 C   0  0  0  0  0  0  0  0  0  0  0  0
   -1.6457   -0.6438    0.0237 O   0  0  0  0  0  0  0  0  0  0  0  0
   -0.3405   -0.2233    0.0037 C   0  0  0  0  0  0  0  0  0  0  0  0
    0.1005    1.1000    0.0123 C   0  0  0  0  0  0  0  0  0  0  0  0
    1.4722    1.3804   -0.0108 C   0  0  0  0  0  0  0  0  0  0  0  0
    2.4065    0.3433   -0.0424 C   0  0  0  0  0  0  0  0  0  0  0  0
    1.9745   -0.9807   -0.0512 C   0  0  0  0  0  0  0  0  0  0  0  0
    0.6115   -1.2499   -0.0281 C   0  0  0  0  0  0  0  0  0  0  0  0
    0.2111   -2.5591   -0.0373 O   0  0  0  0  0  0  0  0  0  0  0  0
  1  2  1  0
  2  3  1  0
  3  4  2  0
  4  5  1  0
  5  6  2  0
  6  7  1  0
  7  8  2  0
  8  9  1  0
  8  3  1  0
M  END
>  <target>  (681) 
-1.96

$$$$

     RDKit          3D

 18 18  0  0  0  0  0  0  0  0999 V2000
   -2.6827    3.2876   -0.0031 C   0  0  0  0  0  0  0  0  0  0  0  0
   -1.4265    2.6937   -0.6066 C   0  0  0  0  0  0  0  0  0  0  0  0
   -1.5523    1.2812   -0.6088 O   0  0  0  0  0  0  0  0  0  0  0  0
   -0.2165    0.3815   -0.8270 P   0  0  0  0  0  0  0  0  0  0  0  0
    0.6855    0.6740   -2.5239 S   0  0  0  0  0  0  0  0  0  0  0  0
   -0.8220   -1.0893   -0.5227 O   0  0  0  0  0  0  0  0  0  0  0  0
   -1.7175   -1.6580   -1.4613 C   0  0  0  0  0  0  0  0  0  0  0  0
   -2.3767   -2.8656   -0.8272 C   0  0  0  0  0  0  0  0  0  0  0  0
    0.5906    0.7236    0.5268 O   0  0  0  0  0  0  0  0  0  0  0  0
    1.7033    0.0257    0.9117 C   0  0  0  0  0  0  0  0  0  0  0  0
    2.0384   -1.0685    0.2013 N   0  0  0  0  0  0  0  0  0  0  0  0
    3.1392   -1.7465    0.6066 C   0  0  0  0  0  0  0  0  0  0  0  0
    3.4668   -3.1251   -0.3674 Cl  0  0  0  0  0  0  0  0  0  0  0  0
    3.9229   -1.3781    1.6962 C   0  0  0  0  0  0  0  0  0  0  0  0
    5.3181   -2.2529    2.1990 Cl  0  0  0  0  0  0  0  0  0  0  0  0
    3.5507   -0.2423    2.4134 C   0  0  0  0  0  0  0  0  0  0  0  0
    2.4221    0.4730    2.0182 C   0  0  0  0  0  0  0  0  0  0  0  0
    1.9624    1.8769    2.9025 Cl  0  0  0  0  0  0  0  0  0  0  0  0
  1  2  1  0
  2  3  1  0
  3  4  1  0
  4  5  2  0
  4  6  1  0
  6  7  1  0
  7  8  1  0
  4  9  1  0
  9 10  1  0
 10 11  2  0
 11 12  1  0
 12 13  1  0
 12 14  2  0
 14 15  1  0
 14 16  1  0
 16 17  2  0
 17 18  1  0
 17 10  1  0
M  END
>  <target>  (682) 
-5.67

$$$$

     RDKit          3D

 15 17  0  0  0  0  0  0  0  0999 V2000
    0.3042    2.5683    0.2404 C   0  0  0  0  0  0  0  0  0  0  0  0
    0.1276    1.0718    0.0835 C   0  0  0  0  0  0  0  0  0  0  0  0
    1.2778    0.2176    0.0839 C   0  0  0  0  0  0  0  0  0  0  0  0
    2.6102    0.6667    0.2662 C   0  0  0  0  0  0  0  0  0  0  0  0
    3.7013   -0.2071    0.2431 C   0  0  0  0  0  0  0  0  0  0  0  0
    3.4956   -1.5626    0.0409 C   0  0  0  0  0  0  0  0  0  0  0  0
    2.1992   -2.0407   -0.1283 C   0  0  0  0  0  0  0  0  0  0  0  0
    1.0940   -1.1716   -0.1024 C   0  0  0  0  0  0  0  0  0  0  0  0
   -0.1961   -1.6904   -0.2554 C   0  0  0  0  0  0  0  0  0  0  0  0
   -1.3315   -0.8748   -0.2046 C   0  0  0  0  0  0  0  0  0  0  0  0
   -2.6073   -1.4525   -0.3308 C   0  0  0  0  0  0  0  0  0  0  0  0
   -3.7600   -0.6747   -0.2648 C   0  0  0  0  0  0  0  0  0  0  0  0
   -3.6494    0.6924   -0.0665 C   0  0  0  0  0  0  0  0  0  0  0  0
   -2.3858    1.2781    0.0557 C   0  0  0  0  0  0  0  0  0  0  0  0
   -1.1903    0.5196   -0.0200 C   0  0  0  0  0  0  0  0  0  0  0  0
  1  2  1  0
  2  3  2  0
  3  4  1  0
  4  5  2  0
  5  6  1  0
  6  7  2  0
  7  8  1  0
  8  9  2  0
  9 10  1  0
 10 11  2  0
 11 12  1  0
 12 13  2  0
 13 14  1  0
 14 15  2  0
 15  2  1  0
  8  3  1  0
 15 10  1  0
M  END
>  <target>  (683) 
-5.89

$$$$

     RDKit          3D

 14 15  0  0  0  0  0  0  0  0999 V2000
    3.7035   -0.3649   -0.1157 C   0  0  0  0  0  0  0  0  0  0  0  0
    2.3656    0.2818   -0.2462 C   0  0  0  0  0  0  0  0  0  0  0  0
    2.1585    1.5760   -0.5220 C   0  0  0  0  0  0  0  0  0  0  0  0
    0.6916    1.7594   -0.5508 C   0  0  0  0  0  0  0  0  0  0  0  0
    0.1770    2.8491   -0.7419 O   0  0  0  0  0  0  0  0  0  0  0  0
    0.1285    0.5097   -0.2627 N   0  0  0  0  0  0  0  0  0  0  0  0
   -1.1636    0.2979    0.2857 C   0  0  0  0  0  0  0  0  0  0  0  0
   -1.4320   -0.8006    1.1172 C   0  0  0  0  0  0  0  0  0  0  0  0
   -2.7073   -1.0075    1.6530 C   0  0  0  0  0  0  0  0  0  0  0  0
   -3.7363   -0.1157    1.3672 C   0  0  0  0  0  0  0  0  0  0  0  0
   -3.4881    0.9841    0.5513 C   0  0  0  0  0  0  0  0  0  0  0  0
   -2.2112    1.1897    0.0178 C   0  0  0  0  0  0  0  0  0  0  0  0
    1.1786   -0.4468   -0.1021 N   0  0  0  0  0  0  0  0  0  0  0  0
    1.0090   -1.6545   -0.9286 C   0  0  0  0  0  0  0  0  0  0  0  0
  1  2  1  0
  2  3  2  0
  3  4  1  0
  4  5  2  0
  4  6  1  0
  6  7  1  0
  7  8  2  0
  8  9  1  0
  9 10  2  0
 10 11  1  0
 11 12  2  0
  6 13  1  0
 13 14  1  0
 13  2  1  0
 12  7  1  0
M  END
>  <target>  (684) 
0.715

$$$$

     RDKit          3D

  6  5  0  0  0  0  0  0  0  0999 V2000
    2.9284   -0.1459    0.2085 C   0  0  0  0  0  0  0  0  0  0  0  0
    1.5660   -0.5121   -0.3581 C   0  0  0  0  0  0  0  0  0  0  0  0
    0.4485    0.2767    0.3186 C   0  0  0  0  0  0  0  0  0  0  0  0
   -0.9197   -0.0871   -0.2463 C   0  0  0  0  0  0  0  0  0  0  0  0
   -1.9057    0.6880    0.4338 O   0  0  0  0  0  0  0  0  0  0  0  0
   -3.2149    0.4033   -0.0403 C   0  0  0  0  0  0  0  0  0  0  0  0
  1  2  1  0
  2  3  1  0
  3  4  1  0
  4  5  1  0
  5  6  1  0
M  END
>  <target>  (685) 
-0.99

$$$$

     RDKit          3D

 11 12  0  0  0  0  0  0  0  0999 V2000
    2.9479    0.5227   -0.3884 C   0  0  0  0  0  0  0  0  0  0  0  0
    1.5408    0.1376   -0.0570 C   0  0  0  0  0  0  0  0  0  0  0  0
    1.2754   -0.7946    0.9311 C   0  0  0  0  0  0  0  0  0  0  0  0
    0.0188   -1.1612    1.2515 N   0  0  0  0  0  0  0  0  0  0  0  0
   -0.9667   -0.5541    0.5395 C   0  0  0  0  0  0  0  0  0  0  0  0
   -2.3017   -0.8191    0.7459 C   0  0  0  0  0  0  0  0  0  0  0  0
   -3.3214   -0.2477    0.0703 N   0  0  0  0  0  0  0  0  0  0  0  0
   -2.9547    0.6370   -0.8608 C   0  0  0  0  0  0  0  0  0  0  0  0
   -1.6989    0.9835   -1.1596 N   0  0  0  0  0  0  0  0  0  0  0  0
   -0.7232    0.3946   -0.4677 C   0  0  0  0  0  0  0  0  0  0  0  0
    0.5400    0.7305   -0.7547 N   0  0  0  0  0  0  0  0  0  0  0  0
  1  2  1  0
  2  3  2  0
  3  4  1  0
  4  5  2  0
  5  6  1  0
  6  7  2  0
  7  8  1  0
  8  9  2  0
  9 10  1  0
 10 11  2  0
 10  5  1  0
 11  2  1  0
M  END
>  <target>  (686) 
-0.8540000000000001

$$$$

     RDKit          3D

 13 13  0  0  0  0  0  0  0  0999 V2000
    4.6354    0.0050    0.9126 C   0  0  0  0  0  0  0  0  0  0  0  0
    3.4475    0.5506    0.1358 C   0  0  0  0  0  0  0  0  0  0  0  0
    2.3019   -0.3193    0.3355 N   0  0  0  0  0  0  0  0  0  0  0  0
    1.1259    0.1038   -0.2713 C   0  0  0  0  0  0  0  0  0  0  0  0
    1.1625    0.7665   -1.4121 N   0  0  0  0  0  0  0  0  0  0  0  0
   -0.0361    1.0833   -1.8739 C   0  0  0  0  0  0  0  0  0  0  0  0
   -0.0646    1.9389   -3.3540 Cl  0  0  0  0  0  0  0  0  0  0  0  0
   -1.2153    0.8214   -1.3346 N   0  0  0  0  0  0  0  0  0  0  0  0
   -1.1348    0.1644   -0.1927 C   0  0  0  0  0  0  0  0  0  0  0  0
   -2.2856   -0.1696    0.5103 N   0  0  0  0  0  0  0  0  0  0  0  0
   -3.4508   -0.4500   -0.3098 C   0  0  0  0  0  0  0  0  0  0  0  0
   -4.6066   -0.8704    0.5845 C   0  0  0  0  0  0  0  0  0  0  0  0
    0.0071   -0.2143    0.3708 N   0  0  0  0  0  0  0  0  0  0  0  0
  1  2  1  0
  2  3  1  0
  3  4  1  0
  4  5  2  0
  5  6  1  0
  6  7  1  0
  6  8  2  0
  8  9  1  0
  9 10  1  0
 10 11  1  0
 11 12  1  0
  9 13  2  0
 13  4  1  0
M  END
>  <target>  (687) 
-4.55

$$$$

     RDKit          3D

  6  5  0  0  0  0  0  0  0  0999 V2000
   -0.8592    0.5235   -1.0370 C   0  0  0  0  0  0  0  0  0  0  0  0
   -0.2298   -0.4079   -0.1136 N   0  0  0  0  0  0  0  0  0  0  0  0
   -0.9660   -1.6312    0.1603 C   0  0  0  0  0  0  0  0  0  0  0  0
    0.8350   -0.0807    0.7174 C   0  0  0  0  0  0  0  0  0  0  0  0
    1.2399   -0.8255    1.6106 O   0  0  0  0  0  0  0  0  0  0  0  0
    1.5072    1.2491    0.4845 C   0  0  0  0  0  0  0  0  0  0  0  0
  1  2  1  0
  2  3  1  0
  2  4  1  0
  4  5  2  0
  4  6  1  0
M  END
>  <target>  (688) 
1.11

$$$$

     RDKit          3D

 14 14  0  0  0  0  0  0  0  0999 V2000
    3.2507    2.5791    0.1535 C   0  0  0  0  0  0  0  0  0  0  0  0
    1.6166    3.1127   -0.4096 S   0  0  0  0  0  0  0  0  0  0  0  0
    0.7067    1.5927   -0.2226 C   0  0  0  0  0  0  0  0  0  0  0  0
    1.3821    0.4627   -0.0678 N   0  0  0  0  0  0  0  0  0  0  0  0
    0.6459   -0.6320    0.0578 C   0  0  0  0  0  0  0  0  0  0  0  0
   -0.6840   -0.6042    0.0423 N   0  0  0  0  0  0  0  0  0  0  0  0
   -1.2878    0.5706   -0.1193 C   0  0  0  0  0  0  0  0  0  0  0  0
   -0.6135    1.7014   -0.2624 N   0  0  0  0  0  0  0  0  0  0  0  0
   -2.6857    0.6066   -0.1693 N   0  0  0  0  0  0  0  0  0  0  0  0
   -3.3405   -0.5246    0.4692 C   0  0  0  0  0  0  0  0  0  0  0  0
   -3.2665    1.9194    0.0710 C   0  0  0  0  0  0  0  0  0  0  0  0
    1.2926   -1.8587    0.2472 N   0  0  0  0  0  0  0  0  0  0  0  0
    2.6742   -1.8915   -0.2080 C   0  0  0  0  0  0  0  0  0  0  0  0
    0.4763   -3.0223   -0.0668 C   0  0  0  0  0  0  0  0  0  0  0  0
  1  2  1  0
  2  3  1  0
  3  4  2  0
  4  5  1  0
  5  6  2  0
  6  7  1  0
  7  8  2  0
  7  9  1  0
  9 10  1  0
  9 11  1  0
  5 12  1  0
 12 13  1  0
 12 14  1  0
  8  3  1  0
M  END
>  <target>  (689) 
-2.676

$$$$

     RDKit          3D

  2  1  0  0  0  0  0  0  0  0999 V2000
    0.6672   -0.0212   -0.0217 C   0  0  0  0  0  0  0  0  0  0  0  0
   -0.6672    0.0212    0.0217 C   0  0  0  0  0  0  0  0  0  0  0  0
  1  2  2  0
M  END
>  <target>  (690) 
-0.4

$$$$

     RDKit          3D

  7  6  0  0  0  0  0  0  0  0999 V2000
   -1.1538    0.4361    1.1823 C   0  0  0  0  0  0  0  0  0  0  0  0
   -0.6155   -0.1249   -0.1441 C   0  0  0  0  0  0  0  0  0  0  0  0
   -1.5058   -1.3075   -0.5727 C   0  0  0  0  0  0  0  0  0  0  0  0
   -0.6973    0.9651   -1.2254 C   0  0  0  0  0  0  0  0  0  0  0  0
    0.8351   -0.6440    0.0168 C   0  0  0  0  0  0  0  0  0  0  0  0
    1.8713    0.3929    0.4411 C   0  0  0  0  0  0  0  0  0  0  0  0
    3.1380   -0.2490    0.5402 O   0  0  0  0  0  0  0  0  0  0  0  0
  1  2  1  0
  2  3  1  0
  2  4  1  0
  2  5  1  0
  5  6  1  0
  6  7  1  0
M  END
>  <target>  (691) 
-0.5

$$$$

     RDKit          3D

 14 14  0  0  0  0  0  0  0  0999 V2000
    0.1965    0.4309   -2.2754 O   0  0  0  0  0  0  0  0  0  0  0  0
    0.6302   -0.1606   -1.2898 C   0  0  0  0  0  0  0  0  0  0  0  0
    1.5920   -1.1211   -1.4404 N   0  0  0  0  0  0  0  0  0  0  0  0
    2.5128   -1.4129   -0.4841 C   0  0  0  0  0  0  0  0  0  0  0  0
    3.6035   -1.8944   -0.7708 O   0  0  0  0  0  0  0  0  0  0  0  0
    2.2035   -1.0666    0.7938 N   0  0  0  0  0  0  0  0  0  0  0  0
    1.2556   -0.1399    1.1324 C   0  0  0  0  0  0  0  0  0  0  0  0
    1.3156    0.4281    2.2203 O   0  0  0  0  0  0  0  0  0  0  0  0
    0.1266    0.0593    0.1299 C   0  0  0  0  0  0  0  0  0  0  0  0
   -0.5114    1.4617    0.2942 C   0  0  0  0  0  0  0  0  0  0  0  0
    0.4508    2.6286    0.0751 C   0  0  0  0  0  0  0  0  0  0  0  0
   -0.9066   -1.0615    0.4543 C   0  0  0  0  0  0  0  0  0  0  0  0
   -2.1882   -1.0145   -0.3374 C   0  0  0  0  0  0  0  0  0  0  0  0
   -3.4002   -0.8674    0.2123 C   0  0  0  0  0  0  0  0  0  0  0  0
  1  2  2  0
  2  3  1  0
  3  4  1  0
  4  5  2  0
  4  6  1  0
  6  7  1  0
  7  8  2  0
  7  9  1  0
  9 10  1  0
 10 11  1  0
  9 12  1  0
 12 13  1  0
 13 14  2  0
  9  2  1  0
M  END
>  <target>  (692) 
-1.614

$$$$

     RDKit          3D

 10 10  0  0  0  0  0  0  0  0999 V2000
   -2.4398   -0.6489   -0.4483 O   0  0  0  0  0  0  0  0  0  0  0  0
   -1.1164   -0.3417   -0.2812 C   0  0  0  0  0  0  0  0  0  0  0  0
   -0.2005   -1.3495   -0.5583 C   0  0  0  0  0  0  0  0  0  0  0  0
    1.1614   -1.0983   -0.4072 C   0  0  0  0  0  0  0  0  0  0  0  0
    1.6022    0.1600    0.0204 C   0  0  0  0  0  0  0  0  0  0  0  0
    3.3112    0.3814    0.1797 Cl  0  0  0  0  0  0  0  0  0  0  0  0
    0.6792    1.1814    0.3014 C   0  0  0  0  0  0  0  0  0  0  0  0
    1.2273    2.7414    0.8316 Cl  0  0  0  0  0  0  0  0  0  0  0  0
   -0.6914    0.9228    0.1475 C   0  0  0  0  0  0  0  0  0  0  0  0
   -1.9031    2.1211    0.4706 Cl  0  0  0  0  0  0  0  0  0  0  0  0
  1  2  1  0
  2  3  2  0
  3  4  1  0
  4  5  2  0
  5  6  1  0
  5  7  1  0
  7  8  1  0
  7  9  2  0
  9 10  1  0
  9  2  1  0
M  END
>  <target>  (693) 
-2.67

$$$$

     RDKit          3D

  8  8  0  0  0  0  0  0  0  0999 V2000
    2.6737    0.3485   -0.0259 C   0  0  0  0  0  0  0  0  0  0  0  0
    1.7249   -0.6619   -0.3429 O   0  0  0  0  0  0  0  0  0  0  0  0
    0.4062   -0.3518   -0.1529 C   0  0  0  0  0  0  0  0  0  0  0  0
   -0.4872   -1.3761   -0.4782 C   0  0  0  0  0  0  0  0  0  0  0  0
   -1.8635   -1.1941   -0.3319 C   0  0  0  0  0  0  0  0  0  0  0  0
   -2.3558    0.0190    0.1427 C   0  0  0  0  0  0  0  0  0  0  0  0
   -1.4713    1.0456    0.4695 C   0  0  0  0  0  0  0  0  0  0  0  0
   -0.0925    0.8621    0.3225 C   0  0  0  0  0  0  0  0  0  0  0  0
  1  2  1  0
  2  3  1  0
  3  4  2  0
  4  5  1  0
  5  6  2  0
  6  7  1  0
  7  8  2  0
  8  3  1  0
M  END
>  <target>  (694) 
-1.85

$$$$

     RDKit          3D

 22 23  0  0  0  0  0  0  0  0999 V2000
   -0.5441   -2.3118   -1.6043 C   0  0  0  0  0  0  0  0  0  0  0  0
   -0.8456   -3.6083   -1.1786 C   0  0  0  0  0  0  0  0  0  0  0  0
   -1.2600   -3.8343    0.1318 C   0  0  0  0  0  0  0  0  0  0  0  0
   -1.3690   -2.7624    1.0124 C   0  0  0  0  0  0  0  0  0  0  0  0
   -1.8678   -3.0388    2.6362 Cl  0  0  0  0  0  0  0  0  0  0  0  0
   -1.0707   -1.4651    0.5925 C   0  0  0  0  0  0  0  0  0  0  0  0
   -0.6596   -1.2130   -0.7315 C   0  0  0  0  0  0  0  0  0  0  0  0
   -0.2930    0.2084   -1.1931 C   0  0  0  0  0  0  0  0  0  0  0  0
   -1.2741    1.2820   -0.6899 C   0  0  0  0  0  0  0  0  0  0  0  0
   -0.9054    2.3024    0.2051 C   0  0  0  0  0  0  0  0  0  0  0  0
   -1.8414    3.2470    0.6424 C   0  0  0  0  0  0  0  0  0  0  0  0
   -3.1575    3.1864    0.1931 C   0  0  0  0  0  0  0  0  0  0  0  0
   -4.3017    4.3503    0.7357 Cl  0  0  0  0  0  0  0  0  0  0  0  0
   -3.5497    2.1889   -0.6919 C   0  0  0  0  0  0  0  0  0  0  0  0
   -2.6158    1.2460   -1.1286 C   0  0  0  0  0  0  0  0  0  0  0  0
   -0.4222    0.2573   -2.6359 O   0  0  0  0  0  0  0  0  0  0  0  0
    1.1999    0.5161   -0.8806 C   0  0  0  0  0  0  0  0  0  0  0  0
    1.9656    1.0071   -1.7084 O   0  0  0  0  0  0  0  0  0  0  0  0
    1.5400    0.2170    0.4056 O   0  0  0  0  0  0  0  0  0  0  0  0
    2.9130    0.4367    0.7772 C   0  0  0  0  0  0  0  0  0  0  0  0
    2.9416    0.6209    2.2893 C   0  0  0  0  0  0  0  0  0  0  0  0
    3.7495   -0.7682    0.3630 C   0  0  0  0  0  0  0  0  0  0  0  0
  1  2  2  0
  2  3  1  0
  3  4  2  0
  4  5  1  0
  4  6  1  0
  6  7  2  0
  7  8  1  0
  8  9  1  0
  9 10  2  0
 10 11  1  0
 11 12  2  0
 12 13  1  0
 12 14  1  0
 14 15  2  0
  8 16  1  0
  8 17  1  0
 17 18  2  0
 17 19  1  0
 19 20  1  0
 20 21  1  0
 20 22  1  0
  7  1  1  0
 15  9  1  0
M  END
>  <target>  (695) 
-4.53

$$$$

     RDKit          3D

 26 29  0  0  0  0  0  0  0  0999 V2000
   -2.6796   -0.4135    2.0739 C   0  0  0  0  0  0  0  0  0  0  0  0
   -2.4638    0.1371    0.6465 C   0  0  0  0  0  0  0  0  0  0  0  0
   -3.0172    1.5936    0.5840 C   0  0  0  0  0  0  0  0  0  0  0  0
   -4.5366    1.6741    0.5928 C   0  0  0  0  0  0  0  0  0  0  0  0
   -5.1069    0.8507   -0.5309 C   0  0  0  0  0  0  0  0  0  0  0  0
   -6.1442    1.1587   -1.1119 O   0  0  0  0  0  0  0  0  0  0  0  0
   -4.4239   -0.4166   -0.8769 C   0  0  0  0  0  0  0  0  0  0  0  0
   -3.2527   -0.7634   -0.3139 C   0  0  0  0  0  0  0  0  0  0  0  0
   -2.6648   -2.1269   -0.5845 C   0  0  0  0  0  0  0  0  0  0  0  0
   -1.2242   -2.0212   -1.0586 C   0  0  0  0  0  0  0  0  0  0  0  0
   -0.3519   -1.2358   -0.0652 C   0  0  0  0  0  0  0  0  0  0  0  0
    1.1165   -1.1946   -0.5471 C   0  0  0  0  0  0  0  0  0  0  0  0
    1.3347   -0.6733   -1.9779 C   0  0  0  0  0  0  0  0  0  0  0  0
    2.7561   -0.1119   -2.0120 C   0  0  0  0  0  0  0  0  0  0  0  0
    3.3122   -0.2673   -0.5944 C   0  0  0  0  0  0  0  0  0  0  0  0
    4.3505    0.7847   -0.2283 C   0  0  0  0  0  0  0  0  0  0  0  0
    4.3290    1.3769    0.8541 O   0  0  0  0  0  0  0  0  0  0  0  0
    5.5105    0.9986   -1.1966 C   0  0  0  0  0  0  0  0  0  0  0  0
    6.3088    2.1054   -0.8060 O   0  0  0  0  0  0  0  0  0  0  0  0
    2.0518   -0.3117    0.3095 C   0  0  0  0  0  0  0  0  0  0  0  0
    1.4115    1.0699    0.5842 C   0  0  0  0  0  0  0  0  0  0  0  0
   -0.0153    0.9816    1.1348 C   0  0  0  0  0  0  0  0  0  0  0  0
    0.0528    0.3920    2.4264 O   0  0  0  0  0  0  0  0  0  0  0  0
   -0.9441    0.1734    0.2001 C   0  0  0  0  0  0  0  0  0  0  0  0
    2.4463   -1.0120    1.6071 C   0  0  0  0  0  0  0  0  0  0  0  0
    2.6721   -2.2175    1.6858 O   0  0  0  0  0  0  0  0  0  0  0  0
  1  2  1  0
  2  3  1  0
  3  4  1  0
  4  5  1  0
  5  6  2  0
  5  7  1  0
  7  8  2  0
  8  9  1  0
  9 10  1  0
 10 11  1  0
 11 12  1  0
 12 13  1  0
 13 14  1  0
 14 15  1  0
 15 16  1  0
 16 17  2  0
 16 18  1  0
 18 19  1  0
 15 20  1  0
 20 21  1  0
 21 22  1  0
 22 23  1  0
 22 24  1  0
 20 25  1  0
 25 26  2  0
  8  2  1  0
 20 12  1  0
 24  2  1  0
 24 11  1  0
M  END
>  <target>  (696) 
-3.85

$$$$

     RDKit          3D

 21 22  0  0  0  0  0  0  0  0999 V2000
   -7.4450    1.0517   -0.4132 C   0  0  0  0  0  0  0  0  0  0  0  0
   -6.3034    1.2010    0.4215 O   0  0  0  0  0  0  0  0  0  0  0  0
   -5.2378    0.3830    0.1647 C   0  0  0  0  0  0  0  0  0  0  0  0
   -5.1656   -0.5794   -0.8440 C   0  0  0  0  0  0  0  0  0  0  0  0
   -4.0087   -1.3514   -0.9961 C   0  0  0  0  0  0  0  0  0  0  0  0
   -2.9162   -1.1533   -0.1518 C   0  0  0  0  0  0  0  0  0  0  0  0
   -1.8265   -1.9727   -0.3411 O   0  0  0  0  0  0  0  0  0  0  0  0
   -0.5800   -1.3955   -0.2696 C   0  0  0  0  0  0  0  0  0  0  0  0
   -0.2388   -0.2528   -0.9928 C   0  0  0  0  0  0  0  0  0  0  0  0
    1.0581    0.2623   -0.9050 C   0  0  0  0  0  0  0  0  0  0  0  0
    2.0233   -0.3628   -0.1035 C   0  0  0  0  0  0  0  0  0  0  0  0
    3.3123    0.2080   -0.0775 N   0  0  0  0  0  0  0  0  0  0  0  0
    4.3337   -0.0752    0.8024 C   0  0  0  0  0  0  0  0  0  0  0  0
    4.2125   -0.7575    1.8165 O   0  0  0  0  0  0  0  0  0  0  0  0
    5.5532    0.5237    0.4635 N   0  0  0  0  0  0  0  0  0  0  0  0
    5.9602    0.7891   -0.9106 C   0  0  0  0  0  0  0  0  0  0  0  0
    6.6440    0.3572    1.4100 C   0  0  0  0  0  0  0  0  0  0  0  0
    1.6780   -1.5260    0.5887 C   0  0  0  0  0  0  0  0  0  0  0  0
    0.3812   -2.0439    0.5024 C   0  0  0  0  0  0  0  0  0  0  0  0
   -2.9904   -0.2098    0.8730 C   0  0  0  0  0  0  0  0  0  0  0  0
   -4.1469    0.5597    1.0212 C   0  0  0  0  0  0  0  0  0  0  0  0
  1  2  1  0
  2  3  1  0
  3  4  2  0
  4  5  1  0
  5  6  2  0
  6  7  1  0
  7  8  1  0
  8  9  2  0
  9 10  1  0
 10 11  2  0
 11 12  1  0
 12 13  1  0
 13 14  2  0
 13 15  1  0
 15 16  1  0
 15 17  1  0
 11 18  1  0
 18 19  2  0
  6 20  1  0
 20 21  2  0
 19  8  1  0
 21  3  1  0
M  END
>  <target>  (697) 
-4.16

$$$$

     RDKit          3D

  9  9  0  0  0  0  0  0  0  0999 V2000
    3.1437   -0.0708    0.2045 C   0  0  0  0  0  0  0  0  0  0  0  0
    2.2190    0.6052   -0.7962 C   0  0  0  0  0  0  0  0  0  0  0  0
    0.7687    0.3272   -0.4961 C   0  0  0  0  0  0  0  0  0  0  0  0
    0.1313   -0.7928   -1.0431 C   0  0  0  0  0  0  0  0  0  0  0  0
   -1.2087   -1.0594   -0.7518 C   0  0  0  0  0  0  0  0  0  0  0  0
   -1.9362   -0.2077    0.0866 C   0  0  0  0  0  0  0  0  0  0  0  0
   -3.3647   -0.5130    0.4262 C   0  0  0  0  0  0  0  0  0  0  0  0
   -1.2941    0.9000    0.6507 C   0  0  0  0  0  0  0  0  0  0  0  0
    0.0460    1.1670    0.3597 C   0  0  0  0  0  0  0  0  0  0  0  0
  1  2  1  0
  2  3  1  0
  3  4  2  0
  4  5  1  0
  5  6  2  0
  6  7  1  0
  6  8  1  0
  8  9  2  0
  9  3  1  0
M  END
>  <target>  (698) 
-3.11

$$$$

     RDKit          3D

  7  6  0  0  0  0  0  0  0  0999 V2000
    1.6501    1.0344    1.9051 C   0  0  0  0  0  0  0  0  0  0  0  0
    0.8332    0.9016    0.6222 C   0  0  0  0  0  0  0  0  0  0  0  0
    0.1565    2.2247    0.2772 C   0  0  0  0  0  0  0  0  0  0  0  0
   -0.4202   -0.4136    0.8660 S   0  0  0  0  0  0  0  0  0  0  0  0
   -0.7863   -0.8555   -0.8750 C   0  0  0  0  0  0  0  0  0  0  0  0
   -2.1546   -1.5310   -0.9246 C   0  0  0  0  0  0  0  0  0  0  0  0
    0.2911   -1.7841   -1.4266 C   0  0  0  0  0  0  0  0  0  0  0  0
  1  2  1  0
  2  3  1  0
  2  4  1  0
  4  5  1  0
  5  6  1  0
  5  7  1  0
M  END
>  <target>  (699) 
-2.24

$$$$

     RDKit          3D

 12 12  0  0  0  0  0  0  0  0999 V2000
    3.5052    0.1803    0.4542 O   0  0  0  0  0  0  0  0  0  0  0  0
    2.6023   -0.5836    0.0865 N   0  0  0  0  0  0  0  0  0  0  0  0
    2.7764   -1.7468   -0.3007 O   0  0  0  0  0  0  0  0  0  0  0  0
    1.2244   -0.0734    0.1110 C   0  0  0  0  0  0  0  0  0  0  0  0
    0.9810    1.2397    0.5427 C   0  0  0  0  0  0  0  0  0  0  0  0
   -0.3262    1.7304    0.5684 C   0  0  0  0  0  0  0  0  0  0  0  0
   -1.3876    0.9170    0.1656 C   0  0  0  0  0  0  0  0  0  0  0  0
   -1.1361   -0.3950   -0.2648 C   0  0  0  0  0  0  0  0  0  0  0  0
    0.1701   -0.9022   -0.2963 C   0  0  0  0  0  0  0  0  0  0  0  0
   -2.2574   -1.2456   -0.6873 N   0  0  0  0  0  0  0  0  0  0  0  0
   -3.3959   -0.7598   -0.6445 O   0  0  0  0  0  0  0  0  0  0  0  0
   -1.9952   -2.3968   -1.0604 O   0  0  0  0  0  0  0  0  0  0  0  0
  1  2  1  0
  2  3  2  0
  2  4  1  0
  4  5  2  0
  5  6  1  0
  6  7  2  0
  7  8  1  0
  8  9  2  0
  8 10  1  0
 10 11  1  0
 10 12  2  0
  9  4  1  0
M  CHG  4   1  -1   2   1  10   1  11  -1
M  END
>  <target>  (700) 
-2.29

$$$$

     RDKit          3D

 19 18  0  0  0  0  0  0  0  0999 V2000
   -4.8726    2.4678    2.8102 C   0  0  0  0  0  0  0  0  0  0  0  0
   -3.3688    2.4066    2.6371 C   0  0  0  0  0  0  0  0  0  0  0  0
   -3.0831    2.1473    1.2721 O   0  0  0  0  0  0  0  0  0  0  0  0
   -1.6227    1.5584    0.8698 P   0  0  0  0  0  0  0  0  0  0  0  0
   -0.1455    2.7369    1.3560 S   0  0  0  0  0  0  0  0  0  0  0  0
   -1.8184    1.4416   -0.7414 O   0  0  0  0  0  0  0  0  0  0  0  0
   -2.1041    2.6093   -1.4955 C   0  0  0  0  0  0  0  0  0  0  0  0
   -2.5867    2.1859   -2.8681 C   0  0  0  0  0  0  0  0  0  0  0  0
   -1.5619   -0.4347    1.5350 S   0  0  0  0  0  0  0  0  0  0  0  0
   -0.1658   -1.0872    0.6007 C   0  0  0  0  0  0  0  0  0  0  0  0
    0.1447   -2.8084    1.0345 S   0  0  0  0  0  0  0  0  0  0  0  0
    1.9231   -3.1925   -0.0183 P   0  0  0  0  0  0  0  0  0  0  0  0
    2.6227   -5.0118   -0.0572 S   0  0  0  0  0  0  0  0  0  0  0  0
    3.0048   -2.0968    0.5070 O   0  0  0  0  0  0  0  0  0  0  0  0
    3.5589   -2.2447    1.8053 C   0  0  0  0  0  0  0  0  0  0  0  0
    3.9682   -0.8763    2.3102 C   0  0  0  0  0  0  0  0  0  0  0  0
    1.6559   -2.5854   -1.5047 O   0  0  0  0  0  0  0  0  0  0  0  0
    2.7215   -2.5434   -2.4411 C   0  0  0  0  0  0  0  0  0  0  0  0
    2.3867   -1.5123   -3.4996 C   0  0  0  0  0  0  0  0  0  0  0  0
  1  2  1  0
  2  3  1  0
  3  4  1  0
  4  5  2  0
  4  6  1  0
  6  7  1  0
  7  8  1  0
  4  9  1  0
  9 10  1  0
 10 11  1  0
 11 12  1  0
 12 13  2  0
 12 14  1  0
 14 15  1  0
 15 16  1  0
 12 17  1  0
 17 18  1  0
 18 19  1  0
M  END
>  <target>  (701) 
-5.54

$$$$

     RDKit          3D

 14 14  0  0  0  0  0  0  0  0999 V2000
   -0.2060    1.9404   -1.9807 C   0  0  0  0  0  0  0  0  0  0  0  0
   -0.8878    1.1046   -0.8954 C   0  0  0  0  0  0  0  0  0  0  0  0
    0.0448    0.1202   -0.1400 C   0  0  0  0  0  0  0  0  0  0  0  0
   -0.7287   -0.7062    0.9630 C   0  0  0  0  0  0  0  0  0  0  0  0
   -1.3363    0.1660    2.0739 C   0  0  0  0  0  0  0  0  0  0  0  0
   -1.8421   -1.6016    0.3949 C   0  0  0  0  0  0  0  0  0  0  0  0
    0.6649   -0.8854   -1.1117 C   0  0  0  0  0  0  0  0  0  0  0  0
    0.1751   -1.1894   -2.1964 O   0  0  0  0  0  0  0  0  0  0  0  0
    1.8069   -1.5025   -0.6809 N   0  0  0  0  0  0  0  0  0  0  0  0
    2.7173   -0.8996    0.1285 C   0  0  0  0  0  0  0  0  0  0  0  0
    3.8998   -1.2252    0.1151 O   0  0  0  0  0  0  0  0  0  0  0  0
    2.2777    0.1427    0.8819 N   0  0  0  0  0  0  0  0  0  0  0  0
    1.1700    0.8797    0.5650 C   0  0  0  0  0  0  0  0  0  0  0  0
    1.1055    2.0620    0.8921 O   0  0  0  0  0  0  0  0  0  0  0  0
  1  2  1  0
  2  3  1  0
  3  4  1  0
  4  5  1  0
  4  6  1  0
  3  7  1  0
  7  8  2  0
  7  9  1  0
  9 10  1  0
 10 11  2  0
 10 12  1  0
 12 13  1  0
 13 14  2  0
 13  3  1  0
M  END
>  <target>  (702) 
-2.21

$$$$

     RDKit          3D

 29 32  0  0  0  0  0  0  0  0999 V2000
    6.9936   -2.1480   -1.1683 C   0  0  0  0  0  0  0  0  0  0  0  0
    6.0336   -1.1336   -0.6286 C   0  0  0  0  0  0  0  0  0  0  0  0
    5.4538   -1.2263    0.4446 O   0  0  0  0  0  0  0  0  0  0  0  0
    5.9133   -0.0919   -1.4973 O   0  0  0  0  0  0  0  0  0  0  0  0
    4.9496    0.8838   -1.0994 C   0  0  0  0  0  0  0  0  0  0  0  0
    3.5065    0.3935   -1.2638 C   0  0  0  0  0  0  0  0  0  0  0  0
    3.2485   -0.6173   -1.9205 O   0  0  0  0  0  0  0  0  0  0  0  0
    2.4138    1.2339   -0.5466 C   0  0  0  0  0  0  0  0  0  0  0  0
    2.7490    2.6135   -0.6809 O   0  0  0  0  0  0  0  0  0  0  0  0
    2.4220    0.8427    0.9439 C   0  0  0  0  0  0  0  0  0  0  0  0
    1.2884   -0.1734    1.1346 C   0  0  0  0  0  0  0  0  0  0  0  0
    0.6082   -0.3374   -0.2359 C   0  0  0  0  0  0  0  0  0  0  0  0
   -0.8930   -0.7026   -0.2072 C   0  0  0  0  0  0  0  0  0  0  0  0
   -1.1302   -1.9781    0.6156 C   0  0  0  0  0  0  0  0  0  0  0  0
   -2.5887   -2.4098    0.5636 C   0  0  0  0  0  0  0  0  0  0  0  0
   -3.5161   -1.2989    0.9964 C   0  0  0  0  0  0  0  0  0  0  0  0
   -4.4677   -1.5494    1.9141 C   0  0  0  0  0  0  0  0  0  0  0  0
   -5.4930   -0.5425    2.2730 C   0  0  0  0  0  0  0  0  0  0  0  0
   -6.3276   -0.8122    3.1334 O   0  0  0  0  0  0  0  0  0  0  0  0
   -5.5183    0.7476    1.4975 C   0  0  0  0  0  0  0  0  0  0  0  0
   -4.1067    1.1580    1.1013 C   0  0  0  0  0  0  0  0  0  0  0  0
   -3.3327    0.0642    0.3048 C   0  0  0  0  0  0  0  0  0  0  0  0
   -3.9286   -0.0649   -1.1169 C   0  0  0  0  0  0  0  0  0  0  0  0
   -1.8031    0.4413    0.2995 C   0  0  0  0  0  0  0  0  0  0  0  0
   -1.4481    1.7177   -0.4681 C   0  0  0  0  0  0  0  0  0  0  0  0
   -2.2771    2.4416   -1.0145 O   0  0  0  0  0  0  0  0  0  0  0  0
    0.0119    2.1211   -0.4541 C   0  0  0  0  0  0  0  0  0  0  0  0
    0.9299    0.9830   -0.9709 C   0  0  0  0  0  0  0  0  0  0  0  0
    0.7314    0.8784   -2.4951 C   0  0  0  0  0  0  0  0  0  0  0  0
  1  2  1  0
  2  3  2  0
  2  4  1  0
  4  5  1  0
  5  6  1  0
  6  7  2  0
  6  8  1  0
  8  9  1  0
  8 10  1  0
 10 11  1  0
 11 12  1  0
 12 13  1  0
 13 14  1  0
 14 15  1  0
 15 16  1  0
 16 17  2  0
 17 18  1  0
 18 19  2  0
 18 20  1  0
 20 21  1  0
 21 22  1  0
 22 23  1  0
 22 24  1  0
 24 25  1  0
 25 26  2  0
 25 27  1  0
 27 28  1  0
 28 29  1  0
 22 16  1  0
 24 13  1  0
 28  8  1  0
 28 12  1  0
M  END
>  <target>  (703) 
-4.21

$$$$

     RDKit          3D

 12 12  0  0  0  0  0  0  0  0999 V2000
    0.3822    2.4567    0.1446 C   0  0  0  0  0  0  0  0  0  0  0  0
   -0.6237    1.3777   -0.0471 C   0  0  0  0  0  0  0  0  0  0  0  0
   -1.8403    1.5631   -0.5258 N   0  0  0  0  0  0  0  0  0  0  0  0
   -2.4363    0.3322   -0.5400 C   0  0  0  0  0  0  0  0  0  0  0  0
   -1.5696   -0.6188   -0.0672 C   0  0  0  0  0  0  0  0  0  0  0  0
   -1.8080   -2.0143    0.0650 N   0  0  0  0  0  0  0  0  0  0  0  0
   -0.8365   -2.7488    0.2765 O   0  0  0  0  0  0  0  0  0  0  0  0
   -2.9795   -2.3889   -0.0563 O   0  0  0  0  0  0  0  0  0  0  0  0
   -0.4104    0.0425    0.2621 N   0  0  0  0  0  0  0  0  0  0  0  0
    0.7901   -0.4933    0.8898 C   0  0  0  0  0  0  0  0  0  0  0  0
    1.7734   -1.0902   -0.1140 C   0  0  0  0  0  0  0  0  0  0  0  0
    2.5039   -0.0508   -0.7587 O   0  0  0  0  0  0  0  0  0  0  0  0
  1  2  1  0
  2  3  2  0
  3  4  1  0
  4  5  2  0
  5  6  1  0
  6  7  1  0
  6  8  2  0
  5  9  1  0
  9 10  1  0
 10 11  1  0
 11 12  1  0
  9  2  1  0
M  CHG  2   6   1   7  -1
M  END
>  <target>  (704) 
-1.22

$$$$

     RDKit          3D

  8  8  0  0  0  0  0  0  0  0999 V2000
   -2.3418   -0.2402   -0.2008 N   0  0  0  0  0  0  0  0  0  0  0  0
   -0.9624   -0.0973   -0.0201 C   0  0  0  0  0  0  0  0  0  0  0  0
   -0.3741    1.1701   -0.0680 C   0  0  0  0  0  0  0  0  0  0  0  0
    1.0151    1.3154   -0.0091 C   0  0  0  0  0  0  0  0  0  0  0  0
    1.8249    0.1849    0.0553 C   0  0  0  0  0  0  0  0  0  0  0  0
    3.5349    0.3585    0.1241 Cl  0  0  0  0  0  0  0  0  0  0  0  0
    1.2568   -1.0859    0.0448 C   0  0  0  0  0  0  0  0  0  0  0  0
   -0.1333   -1.2230   -0.0143 C   0  0  0  0  0  0  0  0  0  0  0  0
  1  2  1  0
  2  3  2  0
  3  4  1  0
  4  5  2  0
  5  6  1  0
  5  7  1  0
  7  8  2  0
  8  2  1  0
M  END
>  <target>  (705) 
-1.66

$$$$

     RDKit          3D

  8  7  0  0  0  0  0  0  0  0999 V2000
    3.0342    0.3153    0.1311 C   0  0  0  0  0  0  0  0  0  0  0  0
    1.5620    0.6719    0.2831 C   0  0  0  0  0  0  0  0  0  0  0  0
    0.6649   -0.5258   -0.0479 C   0  0  0  0  0  0  0  0  0  0  0  0
   -0.8638   -0.2776    0.0892 C   0  0  0  0  0  0  0  0  0  0  0  0
   -1.2385    0.0426    1.5473 C   0  0  0  0  0  0  0  0  0  0  0  0
   -1.5866   -1.5794   -0.3199 C   0  0  0  0  0  0  0  0  0  0  0  0
   -1.3519    0.8761   -0.8131 C   0  0  0  0  0  0  0  0  0  0  0  0
   -0.9844    0.6528   -2.1681 O   0  0  0  0  0  0  0  0  0  0  0  0
  1  2  1  0
  2  3  1  0
  3  4  1  0
  4  5  1  0
  4  6  1  0
  4  7  1  0
  7  8  1  0
M  END
>  <target>  (706) 
-1.52

$$$$

     RDKit          3D

  5  5  0  0  0  0  0  0  0  0999 V2000
   -0.7058    0.7419    0.3376 C   0  0  0  0  0  0  0  0  0  0  0  0
    0.7055    0.7482    0.2240 C   0  0  0  0  0  0  0  0  0  0  0  0
    1.0871   -0.5694    0.1227 C   0  0  0  0  0  0  0  0  0  0  0  0
    0.0003   -1.3828    0.1669 O   0  0  0  0  0  0  0  0  0  0  0  0
   -1.0869   -0.5792    0.2976 C   0  0  0  0  0  0  0  0  0  0  0  0
  1  2  1  0
  2  3  2  0
  3  4  1  0
  4  5  1  0
  5  1  2  0
M  END
>  <target>  (707) 
-0.82

$$$$

     RDKit          3D

 18 18  0  0  0  0  0  0  0  0999 V2000
    6.2649    1.7575   -0.5917 C   0  0  0  0  0  0  0  0  0  0  0  0
    5.3037    1.2090   -1.4841 O   0  0  0  0  0  0  0  0  0  0  0  0
    4.2713    0.5157   -0.7786 C   0  0  0  0  0  0  0  0  0  0  0  0
    3.2675   -0.0042   -1.8010 C   0  0  0  0  0  0  0  0  0  0  0  0
    2.1396   -0.8080   -1.1602 C   0  0  0  0  0  0  0  0  0  0  0  0
    1.3244    0.0542   -0.3214 N   0  0  0  0  0  0  0  0  0  0  0  0
    0.2020   -0.5491    0.2343 C   0  0  0  0  0  0  0  0  0  0  0  0
   -0.8428    0.2478    0.4006 N   0  0  0  0  0  0  0  0  0  0  0  0
   -1.9221   -0.3015    0.9403 C   0  0  0  0  0  0  0  0  0  0  0  0
   -3.0582    0.4578    1.1643 N   0  0  0  0  0  0  0  0  0  0  0  0
   -3.3033    1.5974    0.2913 C   0  0  0  0  0  0  0  0  0  0  0  0
   -4.3656    2.4788    0.9496 C   0  0  0  0  0  0  0  0  0  0  0  0
   -3.7855    1.1340   -1.0833 C   0  0  0  0  0  0  0  0  0  0  0  0
   -2.0095   -1.5716    1.2961 N   0  0  0  0  0  0  0  0  0  0  0  0
   -0.9095   -2.2871    1.0907 C   0  0  0  0  0  0  0  0  0  0  0  0
   -0.9313   -4.0167    1.5137 S   0  0  0  0  0  0  0  0  0  0  0  0
   -2.2469   -4.0196    2.7558 C   0  0  0  0  0  0  0  0  0  0  0  0
    0.2165   -1.8313    0.5556 N   0  0  0  0  0  0  0  0  0  0  0  0
  1  2  1  0
  2  3  1  0
  3  4  1  0
  4  5  1  0
  5  6  1  0
  6  7  1  0
  7  8  2  0
  8  9  1  0
  9 10  1  0
 10 11  1  0
 11 12  1  0
 11 13  1  0
  9 14  2  0
 14 15  1  0
 15 16  1  0
 16 17  1  0
 15 18  2  0
 18  7  1  0
M  END
>  <target>  (708) 
-2.928

$$$$

     RDKit          3D

 16 18  0  0  0  0  0  0  0  0999 V2000
    4.1609    0.4365    1.3700 C   0  0  0  0  0  0  0  0  0  0  0  0
    3.9932   -0.1116    0.0308 N   0  0  0  0  0  0  0  0  0  0  0  0
    5.2162   -0.2601   -0.7394 C   0  0  0  0  0  0  0  0  0  0  0  0
    2.8079   -0.0258   -0.6895 C   0  0  0  0  0  0  0  0  0  0  0  0
    2.7618   -0.0609   -1.9160 O   0  0  0  0  0  0  0  0  0  0  0  0
    1.6792    0.0938    0.0837 N   0  0  0  0  0  0  0  0  0  0  0  0
    0.3695    0.1601   -0.5436 C   0  0  0  0  0  0  0  0  0  0  0  0
   -0.1243   -1.2213   -1.0353 C   0  0  0  0  0  0  0  0  0  0  0  0
   -1.4647   -1.3976   -0.2916 C   0  0  0  0  0  0  0  0  0  0  0  0
   -1.1264   -0.7817    1.0677 C   0  0  0  0  0  0  0  0  0  0  0  0
   -0.7283    0.5735    0.4677 C   0  0  0  0  0  0  0  0  0  0  0  0
   -1.9853    0.9646   -0.3394 C   0  0  0  0  0  0  0  0  0  0  0  0
   -3.1392    1.5436    0.4803 C   0  0  0  0  0  0  0  0  0  0  0  0
   -4.3754    0.8750   -0.1018 C   0  0  0  0  0  0  0  0  0  0  0  0
   -3.9172   -0.5531   -0.3566 C   0  0  0  0  0  0  0  0  0  0  0  0
   -2.4867   -0.3995   -0.8761 C   0  0  0  0  0  0  0  0  0  0  0  0
  1  2  1  0
  2  3  1  0
  2  4  1  0
  4  5  2  0
  4  6  1  0
  6  7  1  0
  7  8  1  0
  8  9  1  0
  9 10  1  0
 10 11  1  0
 11 12  1  0
 12 13  1  0
 13 14  1  0
 14 15  1  0
 15 16  1  0
 11  7  1  0
 16  9  1  0
 16 12  1  0
M  END
>  <target>  (709) 
-3.1710000000000003

$$$$

     RDKit          3D

 10 10  0  0  0  0  0  0  0  0999 V2000
   -1.8130    1.3259   -0.3527 C   0  0  0  0  0  0  0  0  0  0  0  0
   -1.1284    0.0214    0.1145 C   0  0  0  0  0  0  0  0  0  0  0  0
   -1.4854   -0.1727    1.6041 C   0  0  0  0  0  0  0  0  0  0  0  0
   -1.7383   -1.1338   -0.7087 C   0  0  0  0  0  0  0  0  0  0  0  0
    0.4009    0.0262   -0.0547 C   0  0  0  0  0  0  0  0  0  0  0  0
    1.1584   -1.0984    0.3298 C   0  0  0  0  0  0  0  0  0  0  0  0
    2.5488   -1.1266    0.1895 C   0  0  0  0  0  0  0  0  0  0  0  0
    3.2175   -0.0291   -0.3397 C   0  0  0  0  0  0  0  0  0  0  0  0
    2.4947    1.0939   -0.7274 C   0  0  0  0  0  0  0  0  0  0  0  0
    1.1028    1.1213   -0.5865 C   0  0  0  0  0  0  0  0  0  0  0  0
  1  2  1  0
  2  3  1  0
  2  4  1  0
  2  5  1  0
  5  6  2  0
  6  7  1  0
  7  8  2  0
  8  9  1  0
  9 10  2  0
 10  5  1  0
M  END
>  <target>  (710) 
-3.66

$$$$

     RDKit          3D

 24 26  0  0  0  0  0  0  0  0999 V2000
    5.4519   -1.4651   -0.2699 C   0  0  0  0  0  0  0  0  0  0  0  0
    4.6569   -0.2593    0.1557 C   0  0  0  0  0  0  0  0  0  0  0  0
    4.7044    0.1617    1.3109 O   0  0  0  0  0  0  0  0  0  0  0  0
    3.8453    0.4312   -0.9237 C   0  0  0  0  0  0  0  0  0  0  0  0
    2.7041    1.2975   -0.3855 C   0  0  0  0  0  0  0  0  0  0  0  0
    1.7087    0.5942    0.5443 C   0  0  0  0  0  0  0  0  0  0  0  0
    0.5787    1.5253    0.9078 C   0  0  0  0  0  0  0  0  0  0  0  0
    0.7454    2.6436    1.3745 O   0  0  0  0  0  0  0  0  0  0  0  0
   -0.6162    0.8932    0.5273 N   0  0  0  0  0  0  0  0  0  0  0  0
   -0.3446   -0.4087    0.0320 N   0  0  0  0  0  0  0  0  0  0  0  0
    1.0396   -0.6033   -0.0797 C   0  0  0  0  0  0  0  0  0  0  0  0
    1.6514   -1.5748   -0.5039 O   0  0  0  0  0  0  0  0  0  0  0  0
   -1.2305   -1.5139    0.2442 C   0  0  0  0  0  0  0  0  0  0  0  0
   -1.0206   -2.7412   -0.4015 C   0  0  0  0  0  0  0  0  0  0  0  0
   -1.8844   -3.8221   -0.1974 C   0  0  0  0  0  0  0  0  0  0  0  0
   -2.9748   -3.6935    0.6565 C   0  0  0  0  0  0  0  0  0  0  0  0
   -3.2027   -2.4846    1.3055 C   0  0  0  0  0  0  0  0  0  0  0  0
   -2.3381   -1.4045    1.1009 C   0  0  0  0  0  0  0  0  0  0  0  0
   -1.7522    1.6553    0.1015 C   0  0  0  0  0  0  0  0  0  0  0  0
   -2.0888    2.8619    0.7321 C   0  0  0  0  0  0  0  0  0  0  0  0
   -3.2012    3.6053    0.3235 C   0  0  0  0  0  0  0  0  0  0  0  0
   -3.9977    3.1539   -0.7239 C   0  0  0  0  0  0  0  0  0  0  0  0
   -3.6821    1.9594   -1.3629 C   0  0  0  0  0  0  0  0  0  0  0  0
   -2.5694    1.2171   -0.9537 C   0  0  0  0  0  0  0  0  0  0  0  0
  1  2  1  0
  2  3  2  0
  2  4  1  0
  4  5  1  0
  5  6  1  0
  6  7  1  0
  7  8  2  0
  7  9  1  0
  9 10  1  0
 10 11  1  0
 11 12  2  0
 10 13  1  0
 13 14  2  0
 14 15  1  0
 15 16  2  0
 16 17  1  0
 17 18  2  0
  9 19  1  0
 19 20  2  0
 20 21  1  0
 21 22  2  0
 22 23  1  0
 23 24  2  0
 11  6  1  0
 18 13  1  0
 24 19  1  0
M  END
>  <target>  (711) 
-3.27

$$$$

     RDKit          3D

 29 32  0  0  0  0  0  0  0  0999 V2000
    7.4412   -1.4810   -0.3667 C   0  0  0  0  0  0  0  0  0  0  0  0
    5.9581   -1.2766   -0.3772 C   0  0  0  0  0  0  0  0  0  0  0  0
    5.3266   -0.7875   -1.3064 O   0  0  0  0  0  0  0  0  0  0  0  0
    5.4119   -1.7132    0.7923 O   0  0  0  0  0  0  0  0  0  0  0  0
    3.9983   -1.5242    0.8801 C   0  0  0  0  0  0  0  0  0  0  0  0
    3.5927   -0.0514    0.8186 C   0  0  0  0  0  0  0  0  0  0  0  0
    4.1598    0.7834    1.5290 O   0  0  0  0  0  0  0  0  0  0  0  0
    2.4478    0.3254   -0.1496 C   0  0  0  0  0  0  0  0  0  0  0  0
    2.5656   -0.4305   -1.3580 O   0  0  0  0  0  0  0  0  0  0  0  0
    2.4734    1.8262   -0.5474 C   0  0  0  0  0  0  0  0  0  0  0  0
    1.0054    2.2857   -0.6337 C   0  0  0  0  0  0  0  0  0  0  0  0
    0.1909    1.0013   -0.5170 C   0  0  0  0  0  0  0  0  0  0  0  0
   -1.2859    1.1099   -0.1152 C   0  0  0  0  0  0  0  0  0  0  0  0
   -2.0489    2.0597   -1.0490 C   0  0  0  0  0  0  0  0  0  0  0  0
   -3.5086    2.1824   -0.6349 C   0  0  0  0  0  0  0  0  0  0  0  0
   -4.1595    0.8249   -0.6002 C   0  0  0  0  0  0  0  0  0  0  0  0
   -5.2542    0.5980   -1.3497 C   0  0  0  0  0  0  0  0  0  0  0  0
   -5.9123   -0.7218   -1.3994 C   0  0  0  0  0  0  0  0  0  0  0  0
   -6.9366   -0.9014   -2.0461 O   0  0  0  0  0  0  0  0  0  0  0  0
   -5.2784   -1.8116   -0.6391 C   0  0  0  0  0  0  0  0  0  0  0  0
   -4.1890   -1.5881    0.1084 C   0  0  0  0  0  0  0  0  0  0  0  0
   -3.4834   -0.2454    0.2812 C   0  0  0  0  0  0  0  0  0  0  0  0
   -3.6854    0.1411    1.7653 C   0  0  0  0  0  0  0  0  0  0  0  0
   -1.9408   -0.3194   -0.1021 C   0  0  0  0  0  0  0  0  0  0  0  0
   -1.0747   -1.3093    0.7482 C   0  0  0  0  0  0  0  0  0  0  0  0
   -1.5072   -2.6539    0.5492 O   0  0  0  0  0  0  0  0  0  0  0  0
    0.4325   -1.2767    0.4027 C   0  0  0  0  0  0  0  0  0  0  0  0
    1.0224    0.1381    0.4596 C   0  0  0  0  0  0  0  0  0  0  0  0
    0.9896    0.6544    1.9242 C   0  0  0  0  0  0  0  0  0  0  0  0
  1  2  1  0
  2  3  2  0
  2  4  1  0
  4  5  1  0
  5  6  1  0
  6  7  2  0
  6  8  1  0
  8  9  1  0
  8 10  1  0
 10 11  1  0
 11 12  1  0
 12 13  1  0
 13 14  1  0
 14 15  1  0
 15 16  1  0
 16 17  2  0
 17 18  1  0
 18 19  2  0
 18 20  1  0
 20 21  2  0
 21 22  1  0
 22 23  1  0
 22 24  1  0
 24 25  1  0
 25 26  1  0
 25 27  1  0
 27 28  1  0
 28 29  1  0
 22 16  1  0
 24 13  1  0
 28  8  1  0
 28 12  1  0
M  END
>  <target>  (712) 
-4.37

$$$$

     RDKit          3D

  5  4  0  0  0  0  0  0  0  0999 V2000
    2.2911    0.2925    0.1140 C   0  0  0  0  0  0  0  0  0  0  0  0
    1.0256   -0.3249   -0.4533 C   0  0  0  0  0  0  0  0  0  0  0  0
   -0.2122    0.1021    0.3250 C   0  0  0  0  0  0  0  0  0  0  0  0
   -1.3512   -0.5183   -0.2692 O   0  0  0  0  0  0  0  0  0  0  0  0
   -2.5515   -0.1662    0.4054 C   0  0  0  0  0  0  0  0  0  0  0  0
  1  2  1  0
  2  3  1  0
  3  4  1  0
  4  5  1  0
M  END
>  <target>  (713) 
-0.39

$$$$

     RDKit          3D

  7  6  0  0  0  0  0  0  0  0999 V2000
   -1.6563   -1.3435    0.4420 C   0  0  0  0  0  0  0  0  0  0  0  0
   -0.8405   -0.0570    0.4802 C   0  0  0  0  0  0  0  0  0  0  0  0
   -1.5016    1.0262   -0.3648 C   0  0  0  0  0  0  0  0  0  0  0  0
    0.4596   -0.3624   -0.0583 O   0  0  0  0  0  0  0  0  0  0  0  0
    1.4775    0.4488    0.3397 C   0  0  0  0  0  0  0  0  0  0  0  0
    1.3784    1.3981    1.1036 O   0  0  0  0  0  0  0  0  0  0  0  0
    2.7584    0.0096   -0.3011 C   0  0  0  0  0  0  0  0  0  0  0  0
  1  2  1  0
  2  3  1  0
  2  4  1  0
  4  5  1  0
  5  6  2  0
  5  7  1  0
M  END
>  <target>  (714) 
-0.55

$$$$

     RDKit          3D

  7  7  0  0  0  0  0  0  0  0999 V2000
    3.1044   -0.8343    0.0781 Br  0  0  0  0  0  0  0  0  0  0  0  0
    1.2790   -0.3437    0.0322 C   0  0  0  0  0  0  0  0  0  0  0  0
    0.2962   -1.3324    0.0598 C   0  0  0  0  0  0  0  0  0  0  0  0
   -1.0508   -0.9687    0.0258 C   0  0  0  0  0  0  0  0  0  0  0  0
   -1.4088    0.3786   -0.0354 C   0  0  0  0  0  0  0  0  0  0  0  0
   -0.4215    1.3644   -0.0628 C   0  0  0  0  0  0  0  0  0  0  0  0
    0.9263    1.0039   -0.0290 C   0  0  0  0  0  0  0  0  0  0  0  0
  1  2  1  0
  2  3  2  0
  3  4  1  0
  4  5  2  0
  5  6  1  0
  6  7  2  0
  7  2  1  0
M  END
>  <target>  (715) 
-2.55

$$$$

     RDKit          3D

 12 12  0  0  0  0  0  0  0  0999 V2000
    3.9289   -0.7518    0.2619 C   0  0  0  0  0  0  0  0  0  0  0  0
    3.0264    0.4436    0.0264 C   0  0  0  0  0  0  0  0  0  0  0  0
    1.6670   -0.0047    0.0867 O   0  0  0  0  0  0  0  0  0  0  0  0
    0.7495    0.9745   -0.1091 C   0  0  0  0  0  0  0  0  0  0  0  0
    0.9951    2.1515   -0.3222 O   0  0  0  0  0  0  0  0  0  0  0  0
   -0.6316    0.4249   -0.0305 C   0  0  0  0  0  0  0  0  0  0  0  0
   -1.7066    1.3089   -0.2113 C   0  0  0  0  0  0  0  0  0  0  0  0
   -3.0235    0.8453   -0.1475 C   0  0  0  0  0  0  0  0  0  0  0  0
   -3.2606   -0.5033    0.0974 C   0  0  0  0  0  0  0  0  0  0  0  0
   -4.5277   -1.0002    0.1681 O   0  0  0  0  0  0  0  0  0  0  0  0
   -2.2070   -1.3924    0.2788 C   0  0  0  0  0  0  0  0  0  0  0  0
   -0.8897   -0.9310    0.2154 C   0  0  0  0  0  0  0  0  0  0  0  0
  1  2  1  0
  2  3  1  0
  3  4  1  0
  4  5  2  0
  4  6  1  0
  6  7  2  0
  7  8  1  0
  8  9  2  0
  9 10  1  0
  9 11  1  0
 11 12  2  0
 12  6  1  0
M  END
>  <target>  (716) 
-2.35

$$$$

     RDKit          3D

 26 28  0  0  0  0  0  0  0  0999 V2000
   -1.0544   -0.2124    3.1944 O   0  0  0  0  0  0  0  0  0  0  0  0
   -0.9955    0.0775    2.0114 C   0  0  0  0  0  0  0  0  0  0  0  0
    0.0660    0.5740    1.3354 N   0  0  0  0  0  0  0  0  0  0  0  0
    1.3636    0.8002    1.9067 C   0  0  0  0  0  0  0  0  0  0  0  0
    2.1410   -0.3768    1.6887 O   0  0  0  0  0  0  0  0  0  0  0  0
    3.4147   -0.2669    2.1521 C   0  0  0  0  0  0  0  0  0  0  0  0
    3.8681    0.7153    2.7216 O   0  0  0  0  0  0  0  0  0  0  0  0
    4.1623   -1.5531    1.8844 C   0  0  0  0  0  0  0  0  0  0  0  0
    5.6748   -1.4118    2.0429 C   0  0  0  0  0  0  0  0  0  0  0  0
    6.3088   -0.6079    0.9162 C   0  0  0  0  0  0  0  0  0  0  0  0
   -0.2561    0.7919    0.0254 C   0  0  0  0  0  0  0  0  0  0  0  0
    0.5045    1.2614   -0.8154 O   0  0  0  0  0  0  0  0  0  0  0  0
   -1.7352    0.3485   -0.2113 C   0  0  0  0  0  0  0  0  0  0  0  0
   -2.0499   -0.0530    1.1478 N   0  0  0  0  0  0  0  0  0  0  0  0
   -1.7533   -0.8336   -1.1938 C   0  0  0  0  0  0  0  0  0  0  0  0
   -2.0002   -2.1568   -0.7829 C   0  0  0  0  0  0  0  0  0  0  0  0
   -1.9950   -3.2077   -1.7041 C   0  0  0  0  0  0  0  0  0  0  0  0
   -1.7400   -2.9587   -3.0497 C   0  0  0  0  0  0  0  0  0  0  0  0
   -1.4870   -1.6592   -3.4777 C   0  0  0  0  0  0  0  0  0  0  0  0
   -1.4913   -0.6073   -2.5596 C   0  0  0  0  0  0  0  0  0  0  0  0
   -2.6982    1.4775   -0.6058 C   0  0  0  0  0  0  0  0  0  0  0  0
   -2.2861    2.8106   -0.7736 C   0  0  0  0  0  0  0  0  0  0  0  0
   -3.2028    3.8081   -1.1200 C   0  0  0  0  0  0  0  0  0  0  0  0
   -4.5467    3.4952   -1.3031 C   0  0  0  0  0  0  0  0  0  0  0  0
   -4.9796    2.1834   -1.1415 C   0  0  0  0  0  0  0  0  0  0  0  0
   -4.0664    1.1854   -0.7948 C   0  0  0  0  0  0  0  0  0  0  0  0
  1  2  2  0
  2  3  1  0
  3  4  1  0
  4  5  1  0
  5  6  1  0
  6  7  2  0
  6  8  1  0
  8  9  1  0
  9 10  1  0
  3 11  1  0
 11 12  2  0
 11 13  1  0
 13 14  1  0
 13 15  1  0
 15 16  2  0
 16 17  1  0
 17 18  2  0
 18 19  1  0
 19 20  2  0
 13 21  1  0
 21 22  2  0
 22 23  1  0
 23 24  2  0
 24 25  1  0
 25 26  2  0
 14  2  1  0
 20 15  1  0
 26 21  1  0
M  END
>  <target>  (717) 
-5.071000000000001

$$$$

     RDKit          3D

 25 28  0  0  0  0  0  0  0  0999 V2000
    6.4979    0.9781    0.7119 C   0  0  0  0  0  0  0  0  0  0  0  0
    5.8675   -0.1002   -0.1466 C   0  0  0  0  0  0  0  0  0  0  0  0
    4.7498   -0.7936    0.5867 C   0  0  0  0  0  0  0  0  0  0  0  0
    4.8285   -1.9247    1.0442 O   0  0  0  0  0  0  0  0  0  0  0  0
    3.6584    0.0180    0.6552 O   0  0  0  0  0  0  0  0  0  0  0  0
    2.5068   -0.4975    1.3533 C   0  0  0  0  0  0  0  0  0  0  0  0
    1.9486    0.6636    2.1838 C   0  0  0  0  0  0  0  0  0  0  0  0
    0.8780    1.3362    1.3183 C   0  0  0  0  0  0  0  0  0  0  0  0
    0.8191    0.5463   -0.0006 C   0  0  0  0  0  0  0  0  0  0  0  0
   -0.5575    0.5170   -0.7003 C   0  0  0  0  0  0  0  0  0  0  0  0
   -1.0635    1.9438   -0.9975 C   0  0  0  0  0  0  0  0  0  0  0  0
   -2.4327    1.9541   -1.6773 C   0  0  0  0  0  0  0  0  0  0  0  0
   -3.3901    1.1431   -0.8413 C   0  0  0  0  0  0  0  0  0  0  0  0
   -4.4096    1.7514   -0.2094 C   0  0  0  0  0  0  0  0  0  0  0  0
   -5.1864    1.0525    0.8407 C   0  0  0  0  0  0  0  0  0  0  0  0
   -6.1657    1.6005    1.3393 O   0  0  0  0  0  0  0  0  0  0  0  0
   -4.6612   -0.2734    1.3276 C   0  0  0  0  0  0  0  0  0  0  0  0
   -4.1263   -1.0684    0.1489 C   0  0  0  0  0  0  0  0  0  0  0  0
   -3.0142   -0.3326   -0.6563 C   0  0  0  0  0  0  0  0  0  0  0  0
   -2.9587   -1.0511   -2.0291 C   0  0  0  0  0  0  0  0  0  0  0  0
   -1.6154   -0.3399    0.0663 C   0  0  0  0  0  0  0  0  0  0  0  0
   -1.0485   -1.7495    0.3260 C   0  0  0  0  0  0  0  0  0  0  0  0
    0.2843   -1.7019    1.0760 C   0  0  0  0  0  0  0  0  0  0  0  0
    1.3646   -0.8518    0.3665 C   0  0  0  0  0  0  0  0  0  0  0  0
    1.8809   -1.5964   -0.8767 C   0  0  0  0  0  0  0  0  0  0  0  0
  1  2  1  0
  2  3  1  0
  3  4  2  0
  3  5  1  0
  5  6  1  0
  6  7  1  0
  7  8  1  0
  8  9  1  0
  9 10  1  0
 10 11  1  0
 11 12  1  0
 12 13  1  0
 13 14  2  0
 14 15  1  0
 15 16  2  0
 15 17  1  0
 17 18  1  0
 18 19  1  0
 19 20  1  0
 19 21  1  0
 21 22  1  0
 22 23  1  0
 23 24  1  0
 24 25  1  0
 19 13  1  0
 21 10  1  0
 24  6  1  0
 24  9  1  0
M  END
>  <target>  (718) 
-5.37

$$$$

     RDKit          3D

 24 30  0  0  0  0  0  0  0  0999 V2000
    1.4205    3.4344    0.1456 C   0  0  0  0  0  0  0  0  0  0  0  0
    0.0527    3.7168    0.1278 C   0  0  0  0  0  0  0  0  0  0  0  0
   -0.8906    2.6823    0.0736 C   0  0  0  0  0  0  0  0  0  0  0  0
   -2.2660    2.9490    0.0552 C   0  0  0  0  0  0  0  0  0  0  0  0
   -3.1938    1.9063    0.0010 C   0  0  0  0  0  0  0  0  0  0  0  0
   -2.7686    0.5718   -0.0360 C   0  0  0  0  0  0  0  0  0  0  0  0
   -3.6865   -0.4854   -0.0904 C   0  0  0  0  0  0  0  0  0  0  0  0
   -3.2465   -1.8106   -0.1268 C   0  0  0  0  0  0  0  0  0  0  0  0
   -1.8780   -2.1106   -0.1096 C   0  0  0  0  0  0  0  0  0  0  0  0
   -1.4205   -3.4344   -0.1456 C   0  0  0  0  0  0  0  0  0  0  0  0
   -0.0527   -3.7168   -0.1278 C   0  0  0  0  0  0  0  0  0  0  0  0
    0.8906   -2.6823   -0.0736 C   0  0  0  0  0  0  0  0  0  0  0  0
    2.2660   -2.9490   -0.0552 C   0  0  0  0  0  0  0  0  0  0  0  0
    3.1938   -1.9063   -0.0010 C   0  0  0  0  0  0  0  0  0  0  0  0
    2.7686   -0.5718    0.0360 C   0  0  0  0  0  0  0  0  0  0  0  0
    3.6865    0.4854    0.0904 C   0  0  0  0  0  0  0  0  0  0  0  0
    3.2465    1.8106    0.1268 C   0  0  0  0  0  0  0  0  0  0  0  0
    1.8780    2.1106    0.1096 C   0  0  0  0  0  0  0  0  0  0  0  0
    0.9395    1.0558    0.0548 C   0  0  0  0  0  0  0  0  0  0  0  0
   -0.4455    1.3418    0.0368 C   0  0  0  0  0  0  0  0  0  0  0  0
   -1.3850    0.2860   -0.0180 C   0  0  0  0  0  0  0  0  0  0  0  0
   -0.9395   -1.0558   -0.0548 C   0  0  0  0  0  0  0  0  0  0  0  0
    0.4455   -1.3419   -0.0368 C   0  0  0  0  0  0  0  0  0  0  0  0
    1.3850   -0.2860    0.0180 C   0  0  0  0  0  0  0  0  0  0  0  0
  1  2  2  0
  2  3  1  0
  3  4  2  0
  4  5  1  0
  5  6  2  0
  6  7  1  0
  7  8  2  0
  8  9  1  0
  9 10  2  0
 10 11  1  0
 11 12  2  0
 12 13  1  0
 13 14  2  0
 14 15  1  0
 15 16  2  0
 16 17  1  0
 17 18  2  0
 18 19  1  0
 19 20  2  0
 20 21  1  0
 21 22  2  0
 22 23  1  0
 23 24  2  0
 18  1  1  0
 20  3  1  0
 21  6  1  0
 22  9  1  0
 23 12  1  0
 24 15  1  0
 24 19  1  0
M  END
>  <target>  (719) 
-9.332

$$$$

     RDKit          3D

 10 11  0  0  0  0  0  0  0  0999 V2000
   -0.8049    2.5160    0.1071 O   0  0  0  0  0  0  0  0  0  0  0  0
   -0.7372    1.2949    0.0461 C   0  0  0  0  0  0  0  0  0  0  0  0
   -1.8548    0.4813   -0.0271 N   0  0  0  0  0  0  0  0  0  0  0  0
   -1.7898   -0.8997   -0.0964 C   0  0  0  0  0  0  0  0  0  0  0  0
   -0.6954   -1.6004   -0.1018 N   0  0  0  0  0  0  0  0  0  0  0  0
    0.4124   -0.8246   -0.0309 C   0  0  0  0  0  0  0  0  0  0  0  0
    1.7026   -1.2647   -0.0175 N   0  0  0  0  0  0  0  0  0  0  0  0
    2.6060   -0.2589    0.0595 N   0  0  0  0  0  0  0  0  0  0  0  0
    1.8471    0.8463    0.0952 C   0  0  0  0  0  0  0  0  0  0  0  0
    0.4826    0.5441    0.0415 C   0  0  0  0  0  0  0  0  0  0  0  0
  1  2  2  0
  2  3  1  0
  3  4  1  0
  4  5  2  0
  5  6  1  0
  6  7  1  0
  7  8  1  0
  8  9  2  0
  9 10  1  0
 10  2  1  0
 10  6  2  0
M  END
>  <target>  (720) 
-2.266

$$$$

     RDKit          3D

  3  2  0  0  0  0  0  0  0  0999 V2000
    1.7130   -1.0273   -0.3909 Cl  0  0  0  0  0  0  0  0  0  0  0  0
    0.5701    0.1957   -0.0330 C   0  0  0  0  0  0  0  0  0  0  0  0
   -0.7354   -0.0477    0.0795 C   0  0  0  0  0  0  0  0  0  0  0  0
  1  2  1  0
  2  3  2  0
M  END
>  <target>  (721) 
-1.75

$$$$

     RDKit          3D

 18 19  0  0  0  0  0  0  0  0999 V2000
   -3.8945   -0.5046   -0.4841 C   0  0  0  0  0  0  0  0  0  0  0  0
   -2.5809   -0.7285    0.0992 N   0  0  0  0  0  0  0  0  0  0  0  0
   -2.2320   -2.1229    0.3348 C   0  0  0  0  0  0  0  0  0  0  0  0
   -1.6326    0.2955   -0.0564 C   0  0  0  0  0  0  0  0  0  0  0  0
   -1.9419    1.3527   -0.6167 O   0  0  0  0  0  0  0  0  0  0  0  0
   -0.1994    0.0527    0.4842 C   0  0  0  0  0  0  0  0  0  0  0  0
    0.6613   -0.8004   -0.4510 C   0  0  0  0  0  0  0  0  0  0  0  0
    0.5234   -0.7491   -1.8477 C   0  0  0  0  0  0  0  0  0  0  0  0
    1.3285   -1.5378   -2.6720 C   0  0  0  0  0  0  0  0  0  0  0  0
    2.2878   -2.3799   -2.1145 C   0  0  0  0  0  0  0  0  0  0  0  0
    2.4489   -2.4304   -0.7322 C   0  0  0  0  0  0  0  0  0  0  0  0
    1.6451   -1.6436    0.0944 C   0  0  0  0  0  0  0  0  0  0  0  0
    0.5125    1.3424    0.9069 C   0  0  0  0  0  0  0  0  0  0  0  0
    0.7979    1.5738    2.2641 C   0  0  0  0  0  0  0  0  0  0  0  0
    1.4575    2.7370    2.6675 C   0  0  0  0  0  0  0  0  0  0  0  0
    1.8405    3.6859    1.7230 C   0  0  0  0  0  0  0  0  0  0  0  0
    1.5630    3.4740    0.3749 C   0  0  0  0  0  0  0  0  0  0  0  0
    0.9044    2.3115   -0.0307 C   0  0  0  0  0  0  0  0  0  0  0  0
  1  2  1  0
  2  3  1  0
  2  4  1  0
  4  5  2  0
  4  6  1  0
  6  7  1  0
  7  8  2  0
  8  9  1  0
  9 10  2  0
 10 11  1  0
 11 12  2  0
  6 13  1  0
 13 14  2  0
 14 15  1  0
 15 16  2  0
 16 17  1  0
 17 18  2  0
 12  7  1  0
 18 13  1  0
M  END
>  <target>  (722) 
-2.98

$$$$

     RDKit          3D

  5  4  0  0  0  0  0  0  0  0999 V2000
    1.9322   -0.3860   -0.1059 Br  0  0  0  0  0  0  0  0  0  0  0  0
   -0.0000    0.0000   -0.0000 C   0  0  0  0  0  0  0  0  0  0  0  0
   -0.3217    1.8852   -0.4857 Br  0  0  0  0  0  0  0  0  0  0  0  0
   -0.6353   -0.3228    1.8400 Br  0  0  0  0  0  0  0  0  0  0  0  0
   -0.9752   -1.1764   -1.2484 Br  0  0  0  0  0  0  0  0  0  0  0  0
  1  2  1  0
  2  3  1  0
  2  4  1  0
  2  5  1  0
M  END
>  <target>  (723) 
-3.14

$$$$

     RDKit          3D

 22 24  0  0  0  0  0  0  0  0999 V2000
   -1.7264   -2.0839    2.8187 C   0  0  0  0  0  0  0  0  0  0  0  0
   -0.6955   -1.8513    1.7148 C   0  0  0  0  0  0  0  0  0  0  0  0
   -1.0508   -0.6898    0.8766 N   0  0  0  0  0  0  0  0  0  0  0  0
    0.0151    0.1010    0.3767 C   0  0  0  0  0  0  0  0  0  0  0  0
    1.3021   -0.4532    0.1691 C   0  0  0  0  0  0  0  0  0  0  0  0
    2.4244    0.2893   -0.2376 C   0  0  0  0  0  0  0  0  0  0  0  0
    3.6787   -0.3103   -0.4171 N   0  0  0  0  0  0  0  0  0  0  0  0
    4.7964    0.4955   -0.9050 C   0  0  0  0  0  0  0  0  0  0  0  0
    3.7115   -1.7224   -0.8043 C   0  0  0  0  0  0  0  0  0  0  0  0
    2.2139    1.6632   -0.3987 C   0  0  0  0  0  0  0  0  0  0  0  0
    0.9486    2.2638   -0.2416 C   0  0  0  0  0  0  0  0  0  0  0  0
    0.8342    3.7477   -0.4808 C   0  0  0  0  0  0  0  0  0  0  0  0
   -0.1639    1.4688    0.1053 C   0  0  0  0  0  0  0  0  0  0  0  0
   -1.4108    2.1086    0.2276 N   0  0  0  0  0  0  0  0  0  0  0  0
   -2.6847    1.6212    0.1029 C   0  0  0  0  0  0  0  0  0  0  0  0
   -3.6233    2.4135    0.2229 O   0  0  0  0  0  0  0  0  0  0  0  0
   -2.9791    0.2332   -0.2937 C   0  0  0  0  0  0  0  0  0  0  0  0
   -4.1465    0.0128   -1.0446 C   0  0  0  0  0  0  0  0  0  0  0  0
   -4.5188   -1.2779   -1.3922 C   0  0  0  0  0  0  0  0  0  0  0  0
   -3.7161   -2.3106   -0.9587 C   0  0  0  0  0  0  0  0  0  0  0  0
   -2.5990   -2.1308   -0.2213 N   0  0  0  0  0  0  0  0  0  0  0  0
   -2.2208   -0.8617    0.1093 C   0  0  0  0  0  0  0  0  0  0  0  0
  1  2  1  0
  2  3  1  0
  3  4  1  0
  4  5  2  0
  5  6  1  0
  6  7  1  0
  7  8  1  0
  7  9  1  0
  6 10  2  0
 10 11  1  0
 11 12  1  0
 11 13  2  0
 13 14  1  0
 14 15  1  0
 15 16  2  0
 15 17  1  0
 17 18  2  0
 18 19  1  0
 19 20  2  0
 20 21  1  0
 21 22  2  0
 13  4  1  0
 22  3  1  0
 22 17  1  0
M  END
>  <target>  (724) 
-4.871

$$$$

     RDKit          3D

 11 12  0  0  0  0  0  0  0  0999 V2000
   -2.4708   -1.8134    0.1265 O   0  0  0  0  0  0  0  0  0  0  0  0
   -1.8633   -0.7624    0.1134 C   0  0  0  0  0  0  0  0  0  0  0  0
   -2.3673    0.5000    0.1877 N   0  0  0  0  0  0  0  0  0  0  0  0
   -1.3935    1.4502    0.1448 C   0  0  0  0  0  0  0  0  0  0  0  0
   -1.5217    2.6566    0.1900 O   0  0  0  0  0  0  0  0  0  0  0  0
   -0.1236    0.7340    0.0308 C   0  0  0  0  0  0  0  0  0  0  0  0
    1.1704    1.2084   -0.0496 C   0  0  0  0  0  0  0  0  0  0  0  0
    2.1918    0.2583   -0.1524 C   0  0  0  0  0  0  0  0  0  0  0  0
    1.8987   -1.1222   -0.1720 C   0  0  0  0  0  0  0  0  0  0  0  0
    0.5788   -1.5779   -0.0891 C   0  0  0  0  0  0  0  0  0  0  0  0
   -0.4112   -0.6210    0.0116 C   0  0  0  0  0  0  0  0  0  0  0  0
  1  2  2  0
  2  3  1  0
  3  4  1  0
  4  5  2  0
  4  6  1  0
  6  7  2  0
  7  8  1  0
  8  9  2  0
  9 10  1  0
 10 11  2  0
 11  2  1  0
 11  6  1  0
M  END
>  <target>  (725) 
-2.61

$$$$

     RDKit          3D

 22 24  0  0  0  0  0  0  0  0999 V2000
   -0.3098    0.6978   -2.0157 O   0  0  0  0  0  0  0  0  0  0  0  0
   -0.0695    0.3869   -0.6281 C   0  0  0  0  0  0  0  0  0  0  0  0
   -1.3118   -0.3756   -0.1043 C   0  0  0  0  0  0  0  0  0  0  0  0
   -1.2119   -1.4118    0.8452 C   0  0  0  0  0  0  0  0  0  0  0  0
   -2.3543   -2.0640    1.3206 C   0  0  0  0  0  0  0  0  0  0  0  0
   -3.6134   -1.6825    0.8663 C   0  0  0  0  0  0  0  0  0  0  0  0
   -5.0159   -2.4843    1.4567 Cl  0  0  0  0  0  0  0  0  0  0  0  0
   -3.7426   -0.6494   -0.0561 C   0  0  0  0  0  0  0  0  0  0  0  0
   -2.6021    0.0023   -0.5331 C   0  0  0  0  0  0  0  0  0  0  0  0
    0.0681    1.7495    0.0449 C   0  0  0  0  0  0  0  0  0  0  0  0
    0.6343    2.8390   -0.5992 C   0  0  0  0  0  0  0  0  0  0  0  0
    0.8221    4.0501   -0.0319 N   0  0  0  0  0  0  0  0  0  0  0  0
    0.4184    4.1650    1.2393 C   0  0  0  0  0  0  0  0  0  0  0  0
   -0.1318    3.1921    1.9782 N   0  0  0  0  0  0  0  0  0  0  0  0
   -0.2955    2.0043    1.3576 C   0  0  0  0  0  0  0  0  0  0  0  0
    1.2284   -0.4583   -0.6076 C   0  0  0  0  0  0  0  0  0  0  0  0
    2.2933   -0.1354    0.2665 C   0  0  0  0  0  0  0  0  0  0  0  0
    3.4686   -0.8926    0.3101 C   0  0  0  0  0  0  0  0  0  0  0  0
    3.6163   -2.0009   -0.5122 C   0  0  0  0  0  0  0  0  0  0  0  0
    2.5853   -2.3557   -1.3757 C   0  0  0  0  0  0  0  0  0  0  0  0
    1.4043   -1.6011   -1.4236 C   0  0  0  0  0  0  0  0  0  0  0  0
    0.1867   -2.1760   -2.5161 Cl  0  0  0  0  0  0  0  0  0  0  0  0
  1  2  1  0
  2  3  1  0
  3  4  2  0
  4  5  1  0
  5  6  2  0
  6  7  1  0
  6  8  1  0
  8  9  2  0
  2 10  1  0
 10 11  2  0
 11 12  1  0
 12 13  2  0
 13 14  1  0
 14 15  2  0
  2 16  1  0
 16 17  2  0
 17 18  1  0
 18 19  2  0
 19 20  1  0
 20 21  2  0
 21 22  1  0
  9  3  1  0
 15 10  1  0
 21 16  1  0
M  END
>  <target>  (726) 
-4.38

$$$$

     RDKit          3D

 10 10  0  0  0  0  0  0  0  0999 V2000
   -3.4247    0.1167    0.2310 C   0  0  0  0  0  0  0  0  0  0  0  0
   -2.0209    0.1970    0.4817 O   0  0  0  0  0  0  0  0  0  0  0  0
   -1.2518   -0.1980   -0.5641 C   0  0  0  0  0  0  0  0  0  0  0  0
   -1.6646   -0.5946   -1.6428 O   0  0  0  0  0  0  0  0  0  0  0  0
    0.1937   -0.0860   -0.2270 C   0  0  0  0  0  0  0  0  0  0  0  0
    1.1307   -0.4562   -1.2018 C   0  0  0  0  0  0  0  0  0  0  0  0
    2.4984   -0.3693   -0.9341 C   0  0  0  0  0  0  0  0  0  0  0  0
    2.9377    0.0876    0.3076 C   0  0  0  0  0  0  0  0  0  0  0  0
    2.0126    0.4580    1.2832 C   0  0  0  0  0  0  0  0  0  0  0  0
    0.6432    0.3724    1.0192 C   0  0  0  0  0  0  0  0  0  0  0  0
  1  2  1  0
  2  3  1  0
  3  4  2  0
  3  5  1  0
  5  6  2  0
  6  7  1  0
  7  8  2  0
  8  9  1  0
  9 10  2  0
 10  5  1  0
M  END
>  <target>  (727) 
-1.85

$$$$

     RDKit          3D

  9  9  0  0  0  0  0  0  0  0999 V2000
    2.1130    0.2155    0.3757 C   0  0  0  0  0  0  0  0  0  0  0  0
    0.6883    0.0550    0.1248 N   0  0  0  0  0  0  0  0  0  0  0  0
   -0.0558    1.1702   -0.2005 C   0  0  0  0  0  0  0  0  0  0  0  0
   -1.3659    1.0985   -0.4435 C   0  0  0  0  0  0  0  0  0  0  0  0
   -2.0321   -0.2106   -0.3607 C   0  0  0  0  0  0  0  0  0  0  0  0
   -3.2330   -0.3221   -0.5760 O   0  0  0  0  0  0  0  0  0  0  0  0
   -1.2310   -1.2648   -0.0342 N   0  0  0  0  0  0  0  0  0  0  0  0
    0.1159   -1.2090    0.2185 C   0  0  0  0  0  0  0  0  0  0  0  0
    0.7316   -2.2333    0.5042 O   0  0  0  0  0  0  0  0  0  0  0  0
  1  2  1  0
  2  3  1  0
  3  4  2  0
  4  5  1  0
  5  6  2  0
  5  7  1  0
  7  8  1  0
  8  9  2  0
  8  2  1  0
M  END
>  <target>  (728) 
-0.807

$$$$

     RDKit          3D

 24 26  0  0  0  0  0  0  0  0999 V2000
    4.8495    0.9238    0.9923 C   0  0  0  0  0  0  0  0  0  0  0  0
    4.5122   -0.0072   -0.1615 C   0  0  0  0  0  0  0  0  0  0  0  0
    3.0013   -0.1944   -0.3061 C   0  0  0  0  0  0  0  0  0  0  0  0
    2.6690   -1.1339   -1.4733 C   0  0  0  0  0  0  0  0  0  0  0  0
    1.1728   -1.3724   -1.6778 C   0  0  0  0  0  0  0  0  0  0  0  0
    0.5088   -1.9946   -0.4797 C   0  0  0  0  0  0  0  0  0  0  0  0
    0.8767   -3.0451    0.0269 O   0  0  0  0  0  0  0  0  0  0  0  0
   -0.6046   -1.1963   -0.1754 N   0  0  0  0  0  0  0  0  0  0  0  0
   -0.6097   -0.0284   -0.9868 N   0  0  0  0  0  0  0  0  0  0  0  0
    0.4031   -0.1107   -1.9570 C   0  0  0  0  0  0  0  0  0  0  0  0
    0.7014    0.6843   -2.8374 O   0  0  0  0  0  0  0  0  0  0  0  0
   -1.0482    1.2440   -0.4963 C   0  0  0  0  0  0  0  0  0  0  0  0
   -1.2063    2.3345   -1.3662 C   0  0  0  0  0  0  0  0  0  0  0  0
   -1.6409    3.5795   -0.8967 C   0  0  0  0  0  0  0  0  0  0  0  0
   -1.9219    3.7413    0.4529 C   0  0  0  0  0  0  0  0  0  0  0  0
   -2.3484    4.9335    0.9546 O   0  0  0  0  0  0  0  0  0  0  0  0
   -1.7745    2.6820    1.3357 C   0  0  0  0  0  0  0  0  0  0  0  0
   -1.3393    1.4399    0.8638 C   0  0  0  0  0  0  0  0  0  0  0  0
   -1.7993   -1.7575    0.3779 C   0  0  0  0  0  0  0  0  0  0  0  0
   -3.0668   -1.2791    0.0066 C   0  0  0  0  0  0  0  0  0  0  0  0
   -4.2336   -1.8207    0.5557 C   0  0  0  0  0  0  0  0  0  0  0  0
   -4.1535   -2.8512    1.4862 C   0  0  0  0  0  0  0  0  0  0  0  0
   -2.9078   -3.3400    1.8660 C   0  0  0  0  0  0  0  0  0  0  0  0
   -1.7414   -2.7984    1.3155 C   0  0  0  0  0  0  0  0  0  0  0  0
  1  2  1  0
  2  3  1  0
  3  4  1  0
  4  5  1  0
  5  6  1  0
  6  7  2  0
  6  8  1  0
  8  9  1  0
  9 10  1  0
 10 11  2  0
  9 12  1  0
 12 13  2  0
 13 14  1  0
 14 15  2  0
 15 16  1  0
 15 17  1  0
 17 18  2  0
  8 19  1  0
 19 20  2  0
 20 21  1  0
 21 22  2  0
 22 23  1  0
 23 24  2  0
 10  5  1  0
 18 12  1  0
 24 19  1  0
M  END
>  <target>  (729) 
-3.73

$$$$

     RDKit          3D

 16 17  0  0  0  0  0  0  0  0999 V2000
    4.0130   -0.0682   -2.1676 Cl  0  0  0  0  0  0  0  0  0  0  0  0
    2.9685   -0.1798   -0.8055 C   0  0  0  0  0  0  0  0  0  0  0  0
    3.5022   -0.4314    0.4552 C   0  0  0  0  0  0  0  0  0  0  0  0
    2.6528   -0.5246    1.5581 C   0  0  0  0  0  0  0  0  0  0  0  0
    1.2720   -0.3649    1.3971 C   0  0  0  0  0  0  0  0  0  0  0  0
    0.2795   -0.5033    2.8074 Cl  0  0  0  0  0  0  0  0  0  0  0  0
    0.7194   -0.1067    0.1270 C   0  0  0  0  0  0  0  0  0  0  0  0
    1.5925   -0.0194   -0.9737 C   0  0  0  0  0  0  0  0  0  0  0  0
   -0.7277    0.0714   -0.0887 C   0  0  0  0  0  0  0  0  0  0  0  0
   -1.5050   -1.0560   -0.4173 C   0  0  0  0  0  0  0  0  0  0  0  0
   -2.8791   -0.9471   -0.6288 C   0  0  0  0  0  0  0  0  0  0  0  0
   -3.5011    0.2933   -0.5170 C   0  0  0  0  0  0  0  0  0  0  0  0
   -2.7519    1.4286   -0.1947 C   0  0  0  0  0  0  0  0  0  0  0  0
   -3.6042    2.9303   -0.0811 Cl  0  0  0  0  0  0  0  0  0  0  0  0
   -1.3675    1.3264    0.0195 C   0  0  0  0  0  0  0  0  0  0  0  0
   -0.4315    2.7394    0.4102 Cl  0  0  0  0  0  0  0  0  0  0  0  0
  1  2  1  0
  2  3  2  0
  3  4  1  0
  4  5  2  0
  5  6  1  0
  5  7  1  0
  7  8  2  0
  7  9  1  0
  9 10  2  0
 10 11  1  0
 11 12  2  0
 12 13  1  0
 13 14  1  0
 13 15  2  0
 15 16  1  0
  8  2  1  0
 15  9  1  0
M  END
>  <target>  (730) 
-6.47

$$$$

     RDKit          3D

 18 19  0  0  0  0  0  0  0  0999 V2000
    4.2634    0.7037   -0.2428 C   0  0  0  0  0  0  0  0  0  0  0  0
    3.7686   -0.6457    0.2675 C   0  0  0  0  0  0  0  0  0  0  0  0
    2.2506   -0.7258    0.4695 C   0  0  0  0  0  0  0  0  0  0  0  0
    1.7849    0.2323    1.4287 N   0  0  0  0  0  0  0  0  0  0  0  0
    0.4464    0.4519    1.6141 C   0  0  0  0  0  0  0  0  0  0  0  0
    0.0080    0.9205    2.6567 O   0  0  0  0  0  0  0  0  0  0  0  0
   -0.4331    0.1070    0.4789 C   0  0  0  0  0  0  0  0  0  0  0  0
   -1.8148    0.3015    0.5671 C   0  0  0  0  0  0  0  0  0  0  0  0
   -2.6192    0.0241   -0.5437 C   0  0  0  0  0  0  0  0  0  0  0  0
   -2.0376   -0.4266   -1.7324 C   0  0  0  0  0  0  0  0  0  0  0  0
   -2.9403   -0.7738   -3.1634 Cl  0  0  0  0  0  0  0  0  0  0  0  0
   -0.6483   -0.6134   -1.8014 C   0  0  0  0  0  0  0  0  0  0  0  0
    0.1650   -0.3861   -0.6868 C   0  0  0  0  0  0  0  0  0  0  0  0
    1.5594   -0.5083   -0.7909 N   0  0  0  0  0  0  0  0  0  0  0  0
   -4.3631    0.2569   -0.4556 S   0  0  0  0  0  0  0  0  0  0  0  0
   -4.6508    0.8016    1.1103 N   0  0  0  0  0  0  0  0  0  0  0  0
   -5.0027   -1.0360   -0.5147 O   0  0  0  0  0  0  0  0  0  0  0  0
   -4.7276    1.3675   -1.3022 O   0  0  0  0  0  0  0  0  0  0  0  0
  1  2  1  0
  2  3  1  0
  3  4  1  0
  4  5  1  0
  5  6  2  0
  5  7  1  0
  7  8  2  0
  8  9  1  0
  9 10  2  0
 10 11  1  0
 10 12  1  0
 12 13  2  0
 13 14  1  0
  9 15  1  0
 15 16  1  0
 15 17  2  0
 15 18  2  0
 13  7  1  0
 14  3  1  0
M  END
>  <target>  (731) 
-3.29

$$$$

     RDKit          3D

 14 14  0  0  0  0  0  0  0  0999 V2000
   -3.5187   -0.3817   -1.3048 C   0  0  0  0  0  0  0  0  0  0  0  0
   -2.4082    0.2958   -0.6551 N   0  0  0  0  0  0  0  0  0  0  0  0
   -2.7832    1.2267    0.4021 C   0  0  0  0  0  0  0  0  0  0  0  0
   -1.1591   -0.3272   -0.7337 C   0  0  0  0  0  0  0  0  0  0  0  0
   -1.0189   -1.4278   -1.2602 O   0  0  0  0  0  0  0  0  0  0  0  0
   -0.1289    0.4215   -0.2074 N   0  0  0  0  0  0  0  0  0  0  0  0
    1.2032    0.0109    0.0028 C   0  0  0  0  0  0  0  0  0  0  0  0
    1.6147   -1.3230   -0.0286 C   0  0  0  0  0  0  0  0  0  0  0  0
    2.9526   -1.6602    0.2054 C   0  0  0  0  0  0  0  0  0  0  0  0
    3.8919   -0.6660    0.4816 C   0  0  0  0  0  0  0  0  0  0  0  0
    5.5249   -1.1521    0.7625 Cl  0  0  0  0  0  0  0  0  0  0  0  0
    3.4863    0.6704    0.5266 C   0  0  0  0  0  0  0  0  0  0  0  0
    4.5847    1.9606    0.8702 Cl  0  0  0  0  0  0  0  0  0  0  0  0
    2.1466    1.0044    0.2914 C   0  0  0  0  0  0  0  0  0  0  0  0
  1  2  1  0
  2  3  1  0
  2  4  1  0
  4  5  2  0
  4  6  1  0
  6  7  1  0
  7  8  2  0
  8  9  1  0
  9 10  2  0
 10 11  1  0
 10 12  1  0
 12 13  1  0
 12 14  2  0
 14  7  1  0
M  END
>  <target>  (732) 
-3.8

$$$$

     RDKit          3D

  5  5  0  0  0  0  0  0  0  0999 V2000
   -0.4474   -0.7911    0.6231 C   0  0  0  0  0  0  0  0  0  0  0  0
    1.0420   -0.5821    0.3509 C   0  0  0  0  0  0  0  0  0  0  0  0
    1.0736    0.7522   -0.3166 C   0  0  0  0  0  0  0  0  0  0  0  0
   -0.1473    1.1517   -0.6861 C   0  0  0  0  0  0  0  0  0  0  0  0
   -1.1916    0.1486   -0.3251 C   0  0  0  0  0  0  0  0  0  0  0  0
  1  2  1  0
  2  3  1  0
  3  4  2  0
  4  5  1  0
  5  1  1  0
M  END
>  <target>  (733) 
-2.1

$$$$

     RDKit          3D

 20 21  0  0  0  0  0  0  0  0999 V2000
   -1.0304    1.1950   -0.5394 C   0  0  0  0  0  0  0  0  0  0  0  0
   -0.1233    1.9422   -0.8999 O   0  0  0  0  0  0  0  0  0  0  0  0
   -2.2691    1.6802   -0.2181 N   0  0  0  0  0  0  0  0  0  0  0  0
   -3.0657    1.1144    0.7305 C   0  0  0  0  0  0  0  0  0  0  0  0
   -3.9298    1.7678    1.3061 O   0  0  0  0  0  0  0  0  0  0  0  0
   -2.7961   -0.1722    1.0861 N   0  0  0  0  0  0  0  0  0  0  0  0
   -1.6447   -0.8461    0.7732 C   0  0  0  0  0  0  0  0  0  0  0  0
   -1.2965   -1.8446    1.4055 O   0  0  0  0  0  0  0  0  0  0  0  0
   -0.8744   -0.3187   -0.4295 C   0  0  0  0  0  0  0  0  0  0  0  0
   -1.5672   -0.9299   -1.5440 O   0  0  0  0  0  0  0  0  0  0  0  0
    0.6183   -0.7232   -0.3503 C   0  0  0  0  0  0  0  0  0  0  0  0
    0.8099   -2.1503   -0.2007 O   0  0  0  0  0  0  0  0  0  0  0  0
    1.3191   -0.0208    0.8087 C   0  0  0  0  0  0  0  0  0  0  0  0
    0.7180    0.4769    1.7585 O   0  0  0  0  0  0  0  0  0  0  0  0
    2.6852    0.0121    0.7327 N   0  0  0  0  0  0  0  0  0  0  0  0
    3.3621    0.0912   -0.4464 C   0  0  0  0  0  0  0  0  0  0  0  0
    4.4993    0.5486   -0.4961 O   0  0  0  0  0  0  0  0  0  0  0  0
    2.6898   -0.2600   -1.5773 N   0  0  0  0  0  0  0  0  0  0  0  0
    1.3322   -0.4253   -1.6616 C   0  0  0  0  0  0  0  0  0  0  0  0
    0.7490   -0.3821   -2.7462 O   0  0  0  0  0  0  0  0  0  0  0  0
  1  2  2  0
  1  3  1  0
  3  4  1  0
  4  5  2  0
  4  6  1  0
  6  7  1  0
  7  8  2  0
  7  9  1  0
  9 10  1  0
  9 11  1  0
 11 12  1  0
 11 13  1  0
 13 14  2  0
 13 15  1  0
 15 16  1  0
 16 17  2  0
 16 18  1  0
 18 19  1  0
 19 20  2  0
  9  1  1  0
 19 11  1  0
M  END
>  <target>  (734) 
-1.99

$$$$

     RDKit          3D

  9  8  0  0  0  0  0  0  0  0999 V2000
    5.0099   -0.6637    0.1917 C   0  0  0  0  0  0  0  0  0  0  0  0
    3.7624   -0.3290   -0.6104 C   0  0  0  0  0  0  0  0  0  0  0  0
    2.5076   -0.3728    0.2613 C   0  0  0  0  0  0  0  0  0  0  0  0
    1.2551   -0.0356   -0.5492 C   0  0  0  0  0  0  0  0  0  0  0  0
   -0.0007   -0.0794    0.3231 C   0  0  0  0  0  0  0  0  0  0  0  0
   -1.2532    0.2578   -0.4875 C   0  0  0  0  0  0  0  0  0  0  0  0
   -2.5090    0.2140    0.3847 C   0  0  0  0  0  0  0  0  0  0  0  0
   -3.7605    0.5510   -0.4254 C   0  0  0  0  0  0  0  0  0  0  0  0
   -5.0112    0.5085    0.4381 C   0  0  0  0  0  0  0  0  0  0  0  0
  1  2  1  0
  2  3  1  0
  3  4  1  0
  4  5  1  0
  5  6  1  0
  6  7  1  0
  7  8  1  0
  8  9  1  0
M  END
>  <target>  (735) 
-5.88

$$$$

     RDKit          3D

  8  8  0  0  0  0  0  0  0  0999 V2000
   -2.2796   -0.9740   -0.0952 O   0  0  0  0  0  0  0  0  0  0  0  0
   -1.0092   -0.4685   -0.0497 C   0  0  0  0  0  0  0  0  0  0  0  0
    0.0409   -1.3521   -0.2763 C   0  0  0  0  0  0  0  0  0  0  0  0
    1.3556   -0.8846   -0.2406 C   0  0  0  0  0  0  0  0  0  0  0  0
    1.6142    0.4628    0.0213 C   0  0  0  0  0  0  0  0  0  0  0  0
    0.5575    1.3478    0.2486 C   0  0  0  0  0  0  0  0  0  0  0  0
   -0.7556    0.8798    0.2126 C   0  0  0  0  0  0  0  0  0  0  0  0
   -2.0568    1.9755    0.4936 Cl  0  0  0  0  0  0  0  0  0  0  0  0
  1  2  1  0
  2  3  2  0
  3  4  1  0
  4  5  2  0
  5  6  1  0
  6  7  2  0
  7  8  1  0
  7  2  1  0
M  END
>  <target>  (736) 
-1.06

$$$$

     RDKit          3D

 19 22  0  0  0  0  0  0  0  0999 V2000
   -3.6385    1.6513    0.4292 C   0  0  0  0  0  0  0  0  0  0  0  0
   -4.6301    0.6848    0.3529 C   0  0  0  0  0  0  0  0  0  0  0  0
   -4.2601   -0.6318    0.1695 C   0  0  0  0  0  0  0  0  0  0  0  0
   -2.9037   -0.9663    0.0437 C   0  0  0  0  0  0  0  0  0  0  0  0
   -1.8408   -0.0177    0.0783 C   0  0  0  0  0  0  0  0  0  0  0  0
   -0.3944   -0.2983   -0.0742 C   0  0  0  0  0  0  0  0  0  0  0  0
    0.2029   -1.5620   -0.4199 C   0  0  0  0  0  0  0  0  0  0  0  0
   -0.5718   -2.8004   -0.7989 C   0  0  0  0  0  0  0  0  0  0  0  0
    1.6016   -1.7303   -0.4514 C   0  0  0  0  0  0  0  0  0  0  0  0
    2.4807   -0.6868   -0.2018 C   0  0  0  0  0  0  0  0  0  0  0  0
    3.8668   -0.9294   -0.2517 C   0  0  0  0  0  0  0  0  0  0  0  0
    4.7849    0.0886   -0.0226 C   0  0  0  0  0  0  0  0  0  0  0  0
    4.3222    1.3613    0.2584 C   0  0  0  0  0  0  0  0  0  0  0  0
    2.9447    1.6047    0.3084 C   0  0  0  0  0  0  0  0  0  0  0  0
    1.9677    0.5917    0.0806 C   0  0  0  0  0  0  0  0  0  0  0  0
    0.5320    0.7829    0.1256 C   0  0  0  0  0  0  0  0  0  0  0  0
    0.0078    2.0674    0.3657 C   0  0  0  0  0  0  0  0  0  0  0  0
   -1.3525    2.3333    0.4366 C   0  0  0  0  0  0  0  0  0  0  0  0
   -2.2775    1.3134    0.3090 C   0  0  0  0  0  0  0  0  0  0  0  0
  1  2  2  0
  2  3  1  0
  3  4  2  0
  4  5  1  0
  5  6  2  0
  6  7  1  0
  7  8  1  0
  7  9  2  0
  9 10  1  0
 10 11  2  0
 11 12  1  0
 12 13  2  0
 13 14  1  0
 14 15  2  0
 15 16  1  0
 16 17  2  0
 17 18  1  0
 18 19  2  0
 19  1  1  0
 19  5  1  0
 16  6  1  0
 15 10  1  0
M  END
>  <target>  (737) 
-6.59

$$$$

     RDKit          3D

  9  9  0  0  0  0  0  0  0  0999 V2000
    3.3556   -0.1642   -0.0840 C   0  0  0  0  0  0  0  0  0  0  0  0
    1.9240   -0.1976   -0.5884 C   0  0  0  0  0  0  0  0  0  0  0  0
    1.0619    0.0628    0.5175 O   0  0  0  0  0  0  0  0  0  0  0  0
   -0.2829    0.0761    0.2681 C   0  0  0  0  0  0  0  0  0  0  0  0
   -1.0807    0.3357    1.3858 C   0  0  0  0  0  0  0  0  0  0  0  0
   -2.4714    0.3785    1.2739 C   0  0  0  0  0  0  0  0  0  0  0  0
   -3.0745    0.1608    0.0378 C   0  0  0  0  0  0  0  0  0  0  0  0
   -2.2858   -0.0989   -1.0818 C   0  0  0  0  0  0  0  0  0  0  0  0
   -0.8923   -0.1415   -0.9684 C   0  0  0  0  0  0  0  0  0  0  0  0
  1  2  1  0
  2  3  1  0
  3  4  1  0
  4  5  2  0
  5  6  1  0
  6  7  2  0
  7  8  1  0
  8  9  2  0
  9  4  1  0
M  END
>  <target>  (738) 
-2.33

$$$$

     RDKit          3D

 13 13  0  0  0  0  0  0  0  0999 V2000
    5.0330    0.3003   -0.4735 C   0  0  0  0  0  0  0  0  0  0  0  0
    4.0450   -0.2532    0.5348 C   0  0  0  0  0  0  0  0  0  0  0  0
    2.7213    0.0183    0.0596 O   0  0  0  0  0  0  0  0  0  0  0  0
    1.7395   -0.4308    0.8807 C   0  0  0  0  0  0  0  0  0  0  0  0
    1.8884   -1.0194    1.9384 O   0  0  0  0  0  0  0  0  0  0  0  0
    0.4411   -0.0833    0.2690 C   0  0  0  0  0  0  0  0  0  0  0  0
   -0.7010   -0.4277    0.8828 C   0  0  0  0  0  0  0  0  0  0  0  0
   -2.0392   -0.1149    0.3638 C   0  0  0  0  0  0  0  0  0  0  0  0
   -3.0660    0.1689    1.2741 C   0  0  0  0  0  0  0  0  0  0  0  0
   -4.3595    0.4472    0.8254 C   0  0  0  0  0  0  0  0  0  0  0  0
   -4.6427    0.4333   -0.5383 C   0  0  0  0  0  0  0  0  0  0  0  0
   -3.6349    0.1360   -1.4530 C   0  0  0  0  0  0  0  0  0  0  0  0
   -2.3406   -0.1419   -1.0045 C   0  0  0  0  0  0  0  0  0  0  0  0
  1  2  1  0
  2  3  1  0
  3  4  1  0
  4  5  2  0
  4  6  1  0
  6  7  2  3
  7  8  1  0
  8  9  2  0
  9 10  1  0
 10 11  2  0
 11 12  1  0
 12 13  2  0
 13  8  1  0
M  END
>  <target>  (739) 
-3.0

$$$$

     RDKit          3D

 14 14  0  0  0  0  0  0  0  0999 V2000
    4.0981   -0.2109    0.0200 C   0  0  0  0  0  0  0  0  0  0  0  0
    2.6042   -0.1855    0.1708 C   0  0  0  0  0  0  0  0  0  0  0  0
    1.8961   -0.5616   -0.9390 N   0  0  0  0  0  0  0  0  0  0  0  0
    0.5329   -0.5236   -1.0594 C   0  0  0  0  0  0  0  0  0  0  0  0
    0.0423   -1.0038   -2.0777 O   0  0  0  0  0  0  0  0  0  0  0  0
   -0.1651    0.0464   -0.0023 N   0  0  0  0  0  0  0  0  0  0  0  0
    0.4365    0.0291    1.2570 C   0  0  0  0  0  0  0  0  0  0  0  0
   -0.1741   -0.0857    2.3185 O   0  0  0  0  0  0  0  0  0  0  0  0
    1.9285    0.1351    1.2810 C   0  0  0  0  0  0  0  0  0  0  0  0
    2.6715    0.5851    2.7674 Cl  0  0  0  0  0  0  0  0  0  0  0  0
   -1.6616    0.1784   -0.0987 C   0  0  0  0  0  0  0  0  0  0  0  0
   -2.1137    0.6883   -1.4943 C   0  0  0  0  0  0  0  0  0  0  0  0
   -2.2163    1.2344    0.8962 C   0  0  0  0  0  0  0  0  0  0  0  0
   -2.3412   -1.1750    0.1787 C   0  0  0  0  0  0  0  0  0  0  0  0
  1  2  1  0
  2  3  1  0
  3  4  1  0
  4  5  2  0
  4  6  1  0
  6  7  1  0
  7  8  2  0
  7  9  1  0
  9 10  1  0
  6 11  1  0
 11 12  1  0
 11 13  1  0
 11 14  1  0
  9  2  2  0
M  END
>  <target>  (740) 
-2.484

$$$$

     RDKit          3D

 22 24  0  0  0  0  0  0  0  0999 V2000
   -0.0024    1.0989   -2.5868 Cl  0  0  0  0  0  0  0  0  0  0  0  0
    1.4359    1.1198   -1.6301 C   0  0  0  0  0  0  0  0  0  0  0  0
    2.4051    2.0771   -1.9490 C   0  0  0  0  0  0  0  0  0  0  0  0
    3.6114    2.1216   -1.2469 C   0  0  0  0  0  0  0  0  0  0  0  0
    3.8610    1.2028   -0.2295 C   0  0  0  0  0  0  0  0  0  0  0  0
    2.8995    0.2456    0.0955 C   0  0  0  0  0  0  0  0  0  0  0  0
    1.6757    0.2109   -0.5907 C   0  0  0  0  0  0  0  0  0  0  0  0
    0.6919   -0.8319   -0.1676 C   0  0  0  0  0  0  0  0  0  0  0  0
    1.1245   -2.0457   -0.1547 N   0  0  0  0  0  0  0  0  0  0  0  0
    0.2375   -3.1244    0.2606 C   0  0  0  0  0  0  0  0  0  0  0  0
   -0.8820   -3.3216   -0.7437 C   0  0  0  0  0  0  0  0  0  0  0  0
   -1.0359   -4.3715   -1.3693 O   0  0  0  0  0  0  0  0  0  0  0  0
   -1.8188   -2.3294   -0.8632 N   0  0  0  0  0  0  0  0  0  0  0  0
   -1.8327   -1.0855   -0.2169 C   0  0  0  0  0  0  0  0  0  0  0  0
   -3.0959   -0.5038   -0.0274 C   0  0  0  0  0  0  0  0  0  0  0  0
   -3.2331    0.7074    0.6552 C   0  0  0  0  0  0  0  0  0  0  0  0
   -2.0941    1.3526    1.1441 C   0  0  0  0  0  0  0  0  0  0  0  0
   -0.8216    0.8096    0.9273 C   0  0  0  0  0  0  0  0  0  0  0  0
   -0.6857   -0.3983    0.2191 C   0  0  0  0  0  0  0  0  0  0  0  0
   -2.2304    2.6217    1.8705 N   0  0  0  0  0  0  0  0  0  0  0  0
   -3.3744    3.0581    2.0569 O   0  0  0  0  0  0  0  0  0  0  0  0
   -1.1920    3.1770    2.2549 O   0  0  0  0  0  0  0  0  0  0  0  0
  1  2  1  0
  2  3  2  0
  3  4  1  0
  4  5  2  0
  5  6  1  0
  6  7  2  0
  7  8  1  0
  8  9  2  0
  9 10  1  0
 10 11  1  0
 11 12  2  0
 11 13  1  0
 13 14  1  0
 14 15  2  0
 15 16  1  0
 16 17  2  0
 17 18  1  0
 18 19  2  0
 17 20  1  0
 20 21  1  0
 20 22  2  0
  7  2  1  0
 19  8  1  0
 19 14  1  0
M  CHG  2  20   1  21  -1
M  END
>  <target>  (741) 
-3.4989999999999997

$$$$

     RDKit          3D

 11 11  0  0  0  0  0  0  0  0999 V2000
    3.3546    0.3533   -0.0335 C   0  0  0  0  0  0  0  0  0  0  0  0
    1.8683    0.1805    0.0831 C   0  0  0  0  0  0  0  0  0  0  0  0
    1.2830   -1.0742   -0.1360 C   0  0  0  0  0  0  0  0  0  0  0  0
   -0.0954   -1.2465    0.0038 C   0  0  0  0  0  0  0  0  0  0  0  0
   -0.8919   -0.1580    0.3667 C   0  0  0  0  0  0  0  0  0  0  0  0
   -0.3194    1.0917    0.6144 C   0  0  0  0  0  0  0  0  0  0  0  0
    1.0596    1.2571    0.4727 C   0  0  0  0  0  0  0  0  0  0  0  0
   -2.6325   -0.3800    0.5783 S   0  0  0  0  0  0  0  0  0  0  0  0
   -3.1463    0.6595    1.4397 O   0  0  0  0  0  0  0  0  0  0  0  0
   -2.9126   -1.7792    0.8029 O   0  0  0  0  0  0  0  0  0  0  0  0
   -3.2171   -0.0350   -0.9574 N   0  0  0  0  0  0  0  0  0  0  0  0
  1  2  1  0
  2  3  2  0
  3  4  1  0
  4  5  2  0
  5  6  1  0
  6  7  2  0
  5  8  1  0
  8  9  2  0
  8 10  2  0
  8 11  1  0
  7  2  1  0
M  END
>  <target>  (742) 
-1.74

$$$$

     RDKit          3D

 15 15  0  0  0  0  0  0  0  0999 V2000
   -3.4493   -0.9802    0.9942 C   0  0  0  0  0  0  0  0  0  0  0  0
   -3.0510   -0.2183   -0.2666 C   0  0  0  0  0  0  0  0  0  0  0  0
   -1.8155    0.4777   -0.0395 O   0  0  0  0  0  0  0  0  0  0  0  0
   -0.6873   -0.2569   -0.2131 C   0  0  0  0  0  0  0  0  0  0  0  0
   -0.6791   -1.4362   -0.5277 O   0  0  0  0  0  0  0  0  0  0  0  0
    0.3826    0.5572    0.0291 N   0  0  0  0  0  0  0  0  0  0  0  0
    1.7515    0.2435   -0.0228 C   0  0  0  0  0  0  0  0  0  0  0  0
    2.2460   -1.0230   -0.3461 C   0  0  0  0  0  0  0  0  0  0  0  0
    3.6242   -1.2611   -0.3774 C   0  0  0  0  0  0  0  0  0  0  0  0
    4.5193   -0.2343   -0.0854 C   0  0  0  0  0  0  0  0  0  0  0  0
    4.0304    1.0280    0.2370 C   0  0  0  0  0  0  0  0  0  0  0  0
    5.1300    2.3019    0.5991 Cl  0  0  0  0  0  0  0  0  0  0  0  0
    2.6562    1.2711    0.2697 C   0  0  0  0  0  0  0  0  0  0  0  0
   -4.0799    0.7859   -0.5980 C   0  0  0  0  0  0  0  0  0  0  0  0
   -4.9157    1.6043   -0.8717 C   0  0  0  0  0  0  0  0  0  0  0  0
  1  2  1  0
  2  3  1  0
  3  4  1  0
  4  5  2  0
  4  6  1  0
  6  7  1  0
  7  8  2  0
  8  9  1  0
  9 10  2  0
 10 11  1  0
 11 12  1  0
 11 13  2  0
  2 14  1  0
 14 15  3  0
 13  7  1  0
M  END
>  <target>  (743) 
-2.617

$$$$

     RDKit          3D

  8  7  0  0  0  0  0  0  0  0999 V2000
    4.1459    0.1009    0.0107 C   0  0  0  0  0  0  0  0  0  0  0  0
    2.7850    0.5626   -0.4853 C   0  0  0  0  0  0  0  0  0  0  0  0
    1.6531   -0.2381    0.1583 C   0  0  0  0  0  0  0  0  0  0  0  0
    0.2848    0.2293   -0.3441 C   0  0  0  0  0  0  0  0  0  0  0  0
   -0.8474   -0.5715    0.3062 C   0  0  0  0  0  0  0  0  0  0  0  0
   -2.2407   -0.2301   -0.2539 C   0  0  0  0  0  0  0  0  0  0  0  0
   -2.6427    1.2195    0.0219 C   0  0  0  0  0  0  0  0  0  0  0  0
   -3.2853   -1.1774    0.3417 C   0  0  0  0  0  0  0  0  0  0  0  0
  1  2  1  0
  2  3  1  0
  3  4  1  0
  4  5  1  0
  5  6  1  0
  6  7  1  0
  6  8  1  0
M  END
>  <target>  (744) 
-5.08

$$$$

     RDKit          3D

 31 33  0  0  0  0  0  0  0  0999 V2000
   -3.8673    1.5376   -1.5042 C   0  0  0  0  0  0  0  0  0  0  0  0
   -2.7984    1.0607   -0.5489 C   0  0  0  0  0  0  0  0  0  0  0  0
   -3.2547   -0.0818    0.3284 C   0  0  0  0  0  0  0  0  0  0  0  0
   -1.3287    1.0746   -0.9382 C   0  0  0  0  0  0  0  0  0  0  0  0
   -0.9342    1.4568   -2.3014 C   0  0  0  0  0  0  0  0  0  0  0  0
   -0.9512    0.6649   -3.3914 C   0  0  0  0  0  0  0  0  0  0  0  0
   -0.4907    1.3579   -4.9204 Cl  0  0  0  0  0  0  0  0  0  0  0  0
   -1.3445   -0.7849   -3.4362 C   0  0  0  0  0  0  0  0  0  0  0  0
   -2.6581   -0.9292   -3.7616 F   0  0  0  0  0  0  0  0  0  0  0  0
   -1.1723   -1.4216   -2.2459 F   0  0  0  0  0  0  0  0  0  0  0  0
   -0.6423   -1.5019   -4.3527 F   0  0  0  0  0  0  0  0  0  0  0  0
   -1.8645    2.1247    0.0169 C   0  0  0  0  0  0  0  0  0  0  0  0
   -1.5153    2.1202    1.4588 C   0  0  0  0  0  0  0  0  0  0  0  0
   -2.2554    2.5927    2.3061 O   0  0  0  0  0  0  0  0  0  0  0  0
   -0.3226    1.5291    1.6834 O   0  0  0  0  0  0  0  0  0  0  0  0
    0.0354    1.3488    3.0674 C   0  0  0  0  0  0  0  0  0  0  0  0
    0.9150    2.4451    3.5218 C   0  0  0  0  0  0  0  0  0  0  0  0
    1.6017    3.3150    3.8721 N   0  0  0  0  0  0  0  0  0  0  0  0
    0.7171   -0.0091    3.1503 C   0  0  0  0  0  0  0  0  0  0  0  0
    0.3866   -0.9125    4.1731 C   0  0  0  0  0  0  0  0  0  0  0  0
    0.9867   -2.1722    4.2272 C   0  0  0  0  0  0  0  0  0  0  0  0
    1.9130   -2.5493    3.2551 C   0  0  0  0  0  0  0  0  0  0  0  0
    2.2453   -1.6690    2.2266 C   0  0  0  0  0  0  0  0  0  0  0  0
    3.1785   -2.1161    1.3172 O   0  0  0  0  0  0  0  0  0  0  0  0
    3.0899   -1.6521    0.0251 C   0  0  0  0  0  0  0  0  0  0  0  0
    1.9323   -1.8031   -0.7441 C   0  0  0  0  0  0  0  0  0  0  0  0
    1.9081   -1.3304   -2.0571 C   0  0  0  0  0  0  0  0  0  0  0  0
    3.0475   -0.7330   -2.6024 C   0  0  0  0  0  0  0  0  0  0  0  0
    4.2098   -0.6074   -1.8396 C   0  0  0  0  0  0  0  0  0  0  0  0
    4.2332   -1.0737   -0.5258 C   0  0  0  0  0  0  0  0  0  0  0  0
    1.6762   -0.3929    2.1941 C   0  0  0  0  0  0  0  0  0  0  0  0
  1  2  1  0
  2  3  1  0
  2  4  1  0
  4  5  1  0
  5  6  2  3
  6  7  1  0
  6  8  1  0
  8  9  1  0
  8 10  1  0
  8 11  1  0
  4 12  1  0
 12 13  1  0
 13 14  2  0
 13 15  1  0
 15 16  1  0
 16 17  1  0
 17 18  3  0
 16 19  1  0
 19 20  2  0
 20 21  1  0
 21 22  2  0
 22 23  1  0
 23 24  1  0
 24 25  1  0
 25 26  2  0
 26 27  1  0
 27 28  2  0
 28 29  1  0
 29 30  2  0
 23 31  2  0
 12  2  1  0
 31 19  1  0
 30 25  1  0
M  END
>  <target>  (745) 
-8.176

$$$$

     RDKit          3D

 22 24  0  0  0  0  0  0  0  0999 V2000
    4.6181    0.6468   -1.4941 C   0  0  0  0  0  0  0  0  0  0  0  0
    3.2681    0.4098   -0.8341 C   0  0  0  0  0  0  0  0  0  0  0  0
    3.3767    0.4753    0.6941 C   0  0  0  0  0  0  0  0  0  0  0  0
    2.0550    0.2461    1.4264 C   0  0  0  0  0  0  0  0  0  0  0  0
    1.4387   -1.0977    1.1315 C   0  0  0  0  0  0  0  0  0  0  0  0
    2.0226   -2.1606    1.2861 O   0  0  0  0  0  0  0  0  0  0  0  0
    0.1391   -0.8450    0.6604 N   0  0  0  0  0  0  0  0  0  0  0  0
   -0.1137    0.5371    0.6583 N   0  0  0  0  0  0  0  0  0  0  0  0
    0.9971    1.2575    1.0709 C   0  0  0  0  0  0  0  0  0  0  0  0
    1.1504    2.4661    1.1647 O   0  0  0  0  0  0  0  0  0  0  0  0
   -1.3771    1.0213    0.2826 C   0  0  0  0  0  0  0  0  0  0  0  0
   -1.7026    2.3827    0.2380 C   0  0  0  0  0  0  0  0  0  0  0  0
   -2.9904    2.7981   -0.1332 C   0  0  0  0  0  0  0  0  0  0  0  0
   -3.3206    4.2600   -0.2111 C   0  0  0  0  0  0  0  0  0  0  0  0
   -3.9430    1.8368   -0.4826 C   0  0  0  0  0  0  0  0  0  0  0  0
   -3.6198    0.4801   -0.4369 C   0  0  0  0  0  0  0  0  0  0  0  0
   -2.3428    0.0639   -0.0541 C   0  0  0  0  0  0  0  0  0  0  0  0
   -2.0763   -1.3132   -0.0274 N   0  0  0  0  0  0  0  0  0  0  0  0
   -0.8854   -1.7376    0.3013 C   0  0  0  0  0  0  0  0  0  0  0  0
   -0.6337   -3.1023    0.3105 N   0  0  0  0  0  0  0  0  0  0  0  0
    0.2968   -3.6395   -0.6844 C   0  0  0  0  0  0  0  0  0  0  0  0
   -1.7581   -4.0028    0.5693 C   0  0  0  0  0  0  0  0  0  0  0  0
  1  2  1  0
  2  3  1  0
  3  4  1  0
  4  5  1  0
  5  6  2  0
  5  7  1  0
  7  8  1  0
  8  9  1  0
  9 10  2  0
  8 11  1  0
 11 12  2  0
 12 13  1  0
 13 14  1  0
 13 15  2  0
 15 16  1  0
 16 17  2  0
 17 18  1  0
 18 19  2  0
 19 20  1  0
 20 21  1  0
 20 22  1  0
  9  4  1  0
 17 11  1  0
 19  7  1  0
M  END
>  <target>  (746) 
-3.5380000000000003

$$$$

     RDKit          3D

 20 22  0  0  0  0  0  0  0  0999 V2000
   -3.4088   -0.4425   -1.5300 C   0  0  0  0  0  0  0  0  0  0  0  0
   -2.2976   -0.8137   -0.6639 N   0  0  0  0  0  0  0  0  0  0  0  0
   -1.9150   -2.1610   -0.6802 C   0  0  0  0  0  0  0  0  0  0  0  0
   -2.4282   -2.9825   -1.4460 O   0  0  0  0  0  0  0  0  0  0  0  0
   -0.8905   -2.6067    0.3540 C   0  0  0  0  0  0  0  0  0  0  0  0
    0.4135   -2.0482    0.0129 N   0  0  0  0  0  0  0  0  0  0  0  0
    0.5845   -0.7778    0.1601 C   0  0  0  0  0  0  0  0  0  0  0  0
    1.9090   -0.2118   -0.2530 C   0  0  0  0  0  0  0  0  0  0  0  0
    2.0069    1.0554   -0.8422 C   0  0  0  0  0  0  0  0  0  0  0  0
    3.2557    1.5558   -1.2173 C   0  0  0  0  0  0  0  0  0  0  0  0
    4.4049    0.7911   -1.0164 C   0  0  0  0  0  0  0  0  0  0  0  0
    4.3093   -0.4788   -0.4484 C   0  0  0  0  0  0  0  0  0  0  0  0
    3.0635   -0.9829   -0.0718 C   0  0  0  0  0  0  0  0  0  0  0  0
   -0.4481    0.1443    0.7179 C   0  0  0  0  0  0  0  0  0  0  0  0
   -0.0200    1.0676    1.6904 C   0  0  0  0  0  0  0  0  0  0  0  0
   -0.8968    2.0322    2.1715 C   0  0  0  0  0  0  0  0  0  0  0  0
   -0.3634    3.1670    3.3469 Cl  0  0  0  0  0  0  0  0  0  0  0  0
   -2.1996    2.0890    1.6956 C   0  0  0  0  0  0  0  0  0  0  0  0
   -2.6356    1.1566    0.7484 C   0  0  0  0  0  0  0  0  0  0  0  0
   -1.7815    0.1484    0.2605 C   0  0  0  0  0  0  0  0  0  0  0  0
  1  2  1  0
  2  3  1  0
  3  4  2  0
  3  5  1  0
  5  6  1  0
  6  7  2  0
  7  8  1  0
  8  9  2  0
  9 10  1  0
 10 11  2  0
 11 12  1  0
 12 13  2  0
  7 14  1  0
 14 15  2  0
 15 16  1  0
 16 17  1  0
 16 18  2  0
 18 19  1  0
 19 20  2  0
 13  8  1  0
 20  2  1  0
 20 14  1  0
M  END
>  <target>  (747) 
-3.7539999999999996

$$$$

     RDKit          3D

  7  6  0  0  0  0  0  0  0  0999 V2000
    2.8198   -0.0507   -0.2840 C   0  0  0  0  0  0  0  0  0  0  0  0
    1.4226    0.5516   -0.3754 C   0  0  0  0  0  0  0  0  0  0  0  0
    0.3825   -0.2871    0.3797 C   0  0  0  0  0  0  0  0  0  0  0  0
    0.2709   -1.5526   -0.2685 O   0  0  0  0  0  0  0  0  0  0  0  0
   -0.9953    0.4105    0.4630 C   0  0  0  0  0  0  0  0  0  0  0  0
   -1.9481   -0.3602    1.3840 C   0  0  0  0  0  0  0  0  0  0  0  0
   -1.6597    0.5974   -0.9043 C   0  0  0  0  0  0  0  0  0  0  0  0
  1  2  1  0
  2  3  1  0
  3  4  1  0
  3  5  1  0
  5  6  1  0
  5  7  1  0
M  END
>  <target>  (748) 
-0.7

$$$$

     RDKit          3D

 18 18  0  0  0  0  0  0  0  0999 V2000
   -4.3715   -2.5789   -0.6096 C   0  0  0  0  0  0  0  0  0  0  0  0
   -3.4430   -1.7517    0.2556 C   0  0  0  0  0  0  0  0  0  0  0  0
   -3.0023   -0.6339   -0.4974 O   0  0  0  0  0  0  0  0  0  0  0  0
   -1.7787    0.2552    0.0873 P   0  0  0  0  0  0  0  0  0  0  0  0
   -2.1139    1.1402    1.7829 S   0  0  0  0  0  0  0  0  0  0  0  0
   -1.4674    1.2112   -1.1834 O   0  0  0  0  0  0  0  0  0  0  0  0
   -2.4683    2.1219   -1.6053 C   0  0  0  0  0  0  0  0  0  0  0  0
   -2.0278    2.7481   -2.9126 C   0  0  0  0  0  0  0  0  0  0  0  0
   -0.5617   -0.8050    0.0239 O   0  0  0  0  0  0  0  0  0  0  0  0
    0.7617   -0.5308    0.2188 C   0  0  0  0  0  0  0  0  0  0  0  0
    1.3009    0.7502    0.3035 C   0  0  0  0  0  0  0  0  0  0  0  0
    2.6755    0.9177    0.5067 C   0  0  0  0  0  0  0  0  0  0  0  0
    3.5159   -0.1943    0.6260 C   0  0  0  0  0  0  0  0  0  0  0  0
    2.9717   -1.4766    0.5220 C   0  0  0  0  0  0  0  0  0  0  0  0
    1.5996   -1.6422    0.3200 C   0  0  0  0  0  0  0  0  0  0  0  0
    5.2876    0.0465    0.8888 S   0  0  0  0  0  0  0  0  0  0  0  0
    5.1971    0.4565    2.6512 C   0  0  0  0  0  0  0  0  0  0  0  0
    5.9101   -1.3151    0.7809 O   0  0  0  0  0  0  0  0  0  0  0  0
  1  2  1  0
  2  3  1  0
  3  4  1  0
  4  5  2  0
  4  6  1  0
  6  7  1  0
  7  8  1  0
  4  9  1  0
  9 10  1  0
 10 11  2  0
 11 12  1  0
 12 13  2  0
 13 14  1  0
 14 15  2  0
 13 16  1  0
 16 17  1  0
 16 18  2  0
 15 10  1  0
M  END
>  <target>  (749) 
-2.3

$$$$

     RDKit          3D

 11 12  0  0  0  0  0  0  0  0999 V2000
   -1.1670   -1.6770   -0.7841 C   0  0  0  0  0  0  0  0  0  0  0  0
   -0.8602   -0.3873    0.0030 C   0  0  0  0  0  0  0  0  0  0  0  0
   -1.8653   -0.3514    1.1722 C   0  0  0  0  0  0  0  0  0  0  0  0
   -0.8546    0.8992   -0.8655 C   0  0  0  0  0  0  0  0  0  0  0  0
   -0.3912    1.9966    0.1185 C   0  0  0  0  0  0  0  0  0  0  0  0
    0.6290    1.2574    1.0009 C   0  0  0  0  0  0  0  0  0  0  0  0
    0.6336   -0.1749    0.3955 C   0  0  0  0  0  0  0  0  0  0  0  0
    1.2507   -1.2004    1.3283 C   0  0  0  0  0  0  0  0  0  0  0  0
    1.3359   -0.1024   -0.9942 C   0  0  0  0  0  0  0  0  0  0  0  0
    2.5817    0.5724   -0.9613 O   0  0  0  0  0  0  0  0  0  0  0  0
    0.3183    0.6744   -1.8503 C   0  0  0  0  0  0  0  0  0  0  0  0
  1  2  1  0
  2  3  1  0
  2  4  1  0
  4  5  1  0
  5  6  1  0
  6  7  1  0
  7  8  1  0
  7  9  1  0
  9 10  1  0
  9 11  1  0
  7  2  1  0
 11  4  1  0
M  END
>  <target>  (750) 
-2.32

$$$$

     RDKit          3D

 21 24  0  0  0  0  0  0  0  0999 V2000
   -3.1635    0.4640   -1.4782 C   0  0  0  0  0  0  0  0  0  0  0  0
   -2.5902   -0.3263   -0.2903 C   0  0  0  0  0  0  0  0  0  0  0  0
   -1.7366   -1.5068   -0.8056 C   0  0  0  0  0  0  0  0  0  0  0  0
   -0.3908   -1.0674   -1.3814 C   0  0  0  0  0  0  0  0  0  0  0  0
    0.4362   -0.2561   -0.3631 C   0  0  0  0  0  0  0  0  0  0  0  0
   -0.3841    0.9627    0.1362 C   0  0  0  0  0  0  0  0  0  0  0  0
    0.4050    1.7558    1.1884 C   0  0  0  0  0  0  0  0  0  0  0  0
    1.7497    2.2154    0.6440 C   0  0  0  0  0  0  0  0  0  0  0  0
    2.5622    1.0530    0.1264 C   0  0  0  0  0  0  0  0  0  0  0  0
    3.8269    0.8844    0.5513 C   0  0  0  0  0  0  0  0  0  0  0  0
    4.7035   -0.1676   -0.0105 C   0  0  0  0  0  0  0  0  0  0  0  0
    5.8330   -0.3213    0.4465 O   0  0  0  0  0  0  0  0  0  0  0  0
    4.1959   -0.9533   -1.1894 C   0  0  0  0  0  0  0  0  0  0  0  0
    2.6965   -1.1797   -1.0652 C   0  0  0  0  0  0  0  0  0  0  0  0
    1.8736    0.1328   -0.8895 C   0  0  0  0  0  0  0  0  0  0  0  0
    1.8182    0.8713   -2.2462 C   0  0  0  0  0  0  0  0  0  0  0  0
   -1.7839    0.5788    0.6645 C   0  0  0  0  0  0  0  0  0  0  0  0
   -1.8042   -0.1810    2.0039 C   0  0  0  0  0  0  0  0  0  0  0  0
   -3.0707   -1.0375    1.9916 C   0  0  0  0  0  0  0  0  0  0  0  0
   -3.7316   -0.7958    0.6365 C   0  0  0  0  0  0  0  0  0  0  0  0
   -4.3710   -1.9730    0.1801 O   0  0  0  0  0  0  0  0  0  0  0  0
  1  2  1  0
  2  3  1  0
  3  4  1  0
  4  5  1  0
  5  6  1  0
  6  7  1  0
  7  8  1  0
  8  9  1  0
  9 10  2  0
 10 11  1  0
 11 12  2  0
 11 13  1  0
 13 14  1  0
 14 15  1  0
 15 16  1  0
  6 17  1  0
 17 18  1  0
 18 19  1  0
 19 20  1  0
 20 21  1  0
 20  2  1  0
 17  2  1  0
 15  5  1  0
 15  9  1  0
M  END
>  <target>  (751) 
-4.02

$$$$

     RDKit          3D

  7  6  0  0  0  0  0  0  0  0999 V2000
   -3.7444   -0.4625   -0.4075 C   0  0  0  0  0  0  0  0  0  0  0  0
   -2.4974   -0.4221    0.4613 C   0  0  0  0  0  0  0  0  0  0  0  0
   -1.2508   -0.1011   -0.3628 C   0  0  0  0  0  0  0  0  0  0  0  0
    0.0014   -0.0615    0.5148 C   0  0  0  0  0  0  0  0  0  0  0  0
    1.2490    0.2598   -0.3098 C   0  0  0  0  0  0  0  0  0  0  0  0
    2.5001    0.2993    0.5673 C   0  0  0  0  0  0  0  0  0  0  0  0
    3.7426    0.6184   -0.2486 C   0  0  0  0  0  0  0  0  0  0  0  0
  1  2  1  0
  2  3  1  0
  3  4  1  0
  4  5  1  0
  5  6  1  0
  6  7  1  0
M  END
>  <target>  (752) 
-4.53

$$$$

     RDKit          3D

 11 12  0  0  0  0  0  0  0  0999 V2000
    1.5243    2.3713    0.2308 O   0  0  0  0  0  0  0  0  0  0  0  0
    1.2857    1.0204    0.2239 C   0  0  0  0  0  0  0  0  0  0  0  0
    2.3406    0.1377    0.4588 C   0  0  0  0  0  0  0  0  0  0  0  0
    2.1033   -1.2340    0.4527 C   0  0  0  0  0  0  0  0  0  0  0  0
    0.8169   -1.7196    0.2128 C   0  0  0  0  0  0  0  0  0  0  0  0
   -0.2534   -0.8412   -0.0250 C   0  0  0  0  0  0  0  0  0  0  0  0
   -1.5491   -1.3281   -0.2668 C   0  0  0  0  0  0  0  0  0  0  0  0
   -2.6106   -0.4533   -0.5028 C   0  0  0  0  0  0  0  0  0  0  0  0
   -2.3917    0.9198   -0.5004 C   0  0  0  0  0  0  0  0  0  0  0  0
   -1.1102    1.4190   -0.2618 C   0  0  0  0  0  0  0  0  0  0  0  0
   -0.0225    0.5547   -0.0210 C   0  0  0  0  0  0  0  0  0  0  0  0
  1  2  1  0
  2  3  2  0
  3  4  1  0
  4  5  2  0
  5  6  1  0
  6  7  2  0
  7  8  1  0
  8  9  2  0
  9 10  1  0
 10 11  2  0
 11  2  1  0
 11  6  1  0
M  END
>  <target>  (753) 
-2.22

$$$$

     RDKit          3D

  8  8  0  0  0  0  0  0  0  0999 V2000
    2.1717   -0.8212    0.3289 C   0  0  0  0  0  0  0  0  0  0  0  0
    0.7729   -0.5098   -0.2110 C   0  0  0  0  0  0  0  0  0  0  0  0
   -0.2011   -1.6154    0.2318 C   0  0  0  0  0  0  0  0  0  0  0  0
   -1.6209   -1.3592   -0.2621 C   0  0  0  0  0  0  0  0  0  0  0  0
   -2.1241    0.0091    0.1777 C   0  0  0  0  0  0  0  0  0  0  0  0
   -1.1757    1.1190   -0.2628 C   0  0  0  0  0  0  0  0  0  0  0  0
    0.2610    0.8825    0.2343 C   0  0  0  0  0  0  0  0  0  0  0  0
    1.1598    2.0222   -0.2539 C   0  0  0  0  0  0  0  0  0  0  0  0
  1  2  1  0
  2  3  1  0
  3  4  1  0
  4  5  1  0
  5  6  1  0
  6  7  1  0
  7  8  1  0
  7  2  1  0
M  END
>  <target>  (754) 
-4.3

$$$$

     RDKit          3D

 31 33  0  0  0  0  0  0  0  0999 V2000
    7.9654   -0.4611   -1.1813 C   0  0  0  0  0  0  0  0  0  0  0  0
    7.3198   -0.5339    0.0876 O   0  0  0  0  0  0  0  0  0  0  0  0
    6.0052   -0.1588    0.0910 C   0  0  0  0  0  0  0  0  0  0  0  0
    5.1794   -0.9298    0.9066 C   0  0  0  0  0  0  0  0  0  0  0  0
    3.7943   -0.6565    1.0184 C   0  0  0  0  0  0  0  0  0  0  0  0
    2.9078   -1.3819    1.8137 C   0  0  0  0  0  0  0  0  0  0  0  0
    3.3381   -2.4608    2.5990 N   0  0  0  0  0  0  0  0  0  0  0  0
    1.5947   -1.1296    1.8716 N   0  0  0  0  0  0  0  0  0  0  0  0
    1.1162   -0.1099    1.1477 C   0  0  0  0  0  0  0  0  0  0  0  0
    1.9041    0.6537    0.3798 N   0  0  0  0  0  0  0  0  0  0  0  0
    3.2211    0.3918    0.3022 C   0  0  0  0  0  0  0  0  0  0  0  0
    4.0695    1.1650   -0.5050 C   0  0  0  0  0  0  0  0  0  0  0  0
    3.5579    2.2464   -1.1988 O   0  0  0  0  0  0  0  0  0  0  0  0
    2.9927    1.8075   -2.4338 C   0  0  0  0  0  0  0  0  0  0  0  0
    5.4540    0.9286   -0.5822 C   0  0  0  0  0  0  0  0  0  0  0  0
    6.2358    1.7492   -1.3563 O   0  0  0  0  0  0  0  0  0  0  0  0
    6.6263    2.8986   -0.6017 C   0  0  0  0  0  0  0  0  0  0  0  0
   -0.2479    0.1931    1.2232 N   0  0  0  0  0  0  0  0  0  0  0  0
   -0.7339    1.0184    0.1040 C   0  0  0  0  0  0  0  0  0  0  0  0
   -2.1932    1.4438    0.3314 C   0  0  0  0  0  0  0  0  0  0  0  0
   -3.0662    0.3266    0.6907 N   0  0  0  0  0  0  0  0  0  0  0  0
   -2.5555   -0.5471    1.7514 C   0  0  0  0  0  0  0  0  0  0  0  0
   -1.0926   -0.9713    1.5306 C   0  0  0  0  0  0  0  0  0  0  0  0
   -4.4185    0.4493    0.4314 C   0  0  0  0  0  0  0  0  0  0  0  0
   -4.9109    1.3262   -0.2697 O   0  0  0  0  0  0  0  0  0  0  0  0
   -5.1560   -0.5264    1.0213 O   0  0  0  0  0  0  0  0  0  0  0  0
   -6.5907   -0.4449    0.8804 C   0  0  0  0  0  0  0  0  0  0  0  0
   -7.1110   -0.8798   -0.5122 C   0  0  0  0  0  0  0  0  0  0  0  0
   -6.3243   -2.0562   -1.0907 C   0  0  0  0  0  0  0  0  0  0  0  0
   -8.5964   -1.2396   -0.4100 C   0  0  0  0  0  0  0  0  0  0  0  0
   -7.0384    0.2005   -1.4509 O   0  0  0  0  0  0  0  0  0  0  0  0
  1  2  1  0
  2  3  1  0
  3  4  2  0
  4  5  1  0
  5  6  2  0
  6  7  1  0
  6  8  1  0
  8  9  2  0
  9 10  1  0
 10 11  2  0
 11 12  1  0
 12 13  1  0
 13 14  1  0
 12 15  2  0
 15 16  1  0
 16 17  1  0
  9 18  1  0
 18 19  1  0
 19 20  1  0
 20 21  1  0
 21 22  1  0
 22 23  1  0
 21 24  1  0
 24 25  2  0
 24 26  1  0
 26 27  1  0
 27 28  1  0
 28 29  1  0
 28 30  1  0
 28 31  1  0
 11  5  1  0
 15  3  1  0
 23 18  1  0
M  END
>  <target>  (755) 
-3.638

$$$$

     RDKit          3D

 20 24  0  0  0  0  0  0  0  0999 V2000
   -3.7050    1.2936    0.1640 C   0  0  0  0  0  0  0  0  0  0  0  0
   -2.3294    2.0064    0.2226 C   0  0  0  0  0  0  0  0  0  0  0  0
   -1.3294    0.8856    0.1011 C   0  0  0  0  0  0  0  0  0  0  0  0
   -1.9770   -0.3163   -0.0133 C   0  0  0  0  0  0  0  0  0  0  0  0
   -3.3383   -0.1509    0.0159 C   0  0  0  0  0  0  0  0  0  0  0  0
   -4.1620   -1.2594   -0.0875 C   0  0  0  0  0  0  0  0  0  0  0  0
   -3.5719   -2.5255   -0.2198 C   0  0  0  0  0  0  0  0  0  0  0  0
   -2.1717   -2.6730   -0.2476 C   0  0  0  0  0  0  0  0  0  0  0  0
   -1.3390   -1.5423   -0.1421 C   0  0  0  0  0  0  0  0  0  0  0  0
    0.0693   -1.5101   -0.1519 C   0  0  0  0  0  0  0  0  0  0  0  0
    0.8106   -0.2909   -0.0367 C   0  0  0  0  0  0  0  0  0  0  0  0
    0.0698    0.9262    0.0921 C   0  0  0  0  0  0  0  0  0  0  0  0
    0.7473    2.1451    0.2080 C   0  0  0  0  0  0  0  0  0  0  0  0
    2.1377    2.1935    0.1999 C   0  0  0  0  0  0  0  0  0  0  0  0
    2.8957    1.0272    0.0760 C   0  0  0  0  0  0  0  0  0  0  0  0
    4.2983    1.1175    0.0720 C   0  0  0  0  0  0  0  0  0  0  0  0
    5.0925   -0.0190   -0.0492 C   0  0  0  0  0  0  0  0  0  0  0  0
    4.4908   -1.2616   -0.1681 C   0  0  0  0  0  0  0  0  0  0  0  0
    3.0961   -1.3642   -0.1654 C   0  0  0  0  0  0  0  0  0  0  0  0
    2.2506   -0.2313   -0.0441 C   0  0  0  0  0  0  0  0  0  0  0  0
  1  2  1  0
  2  3  1  0
  3  4  2  0
  4  5  1  0
  5  6  2  0
  6  7  1  0
  7  8  2  0
  8  9  1  0
  9 10  2  0
 10 11  1  0
 11 12  2  0
 12 13  1  0
 13 14  2  0
 14 15  1  0
 15 16  2  0
 16 17  1  0
 17 18  2  0
 18 19  1  0
 19 20  2  0
  5  1  1  0
 12  3  1  0
  9  4  1  0
 20 11  1  0
 20 15  1  0
M  END
>  <target>  (756) 
-7.85

$$$$

     RDKit          3D

 25 28  0  0  0  0  0  0  0  0999 V2000
    5.2539    0.9025    1.1106 C   0  0  0  0  0  0  0  0  0  0  0  0
    4.2797   -0.2465    0.9998 C   0  0  0  0  0  0  0  0  0  0  0  0
    4.3068   -1.1499    1.8382 O   0  0  0  0  0  0  0  0  0  0  0  0
    3.3265   -0.2906   -0.2127 C   0  0  0  0  0  0  0  0  0  0  0  0
    4.1124   -1.0017   -1.3355 C   0  0  0  0  0  0  0  0  0  0  0  0
    2.9184    1.1199   -0.6932 C   0  0  0  0  0  0  0  0  0  0  0  0
    1.5458    0.9884   -1.3553 C   0  0  0  0  0  0  0  0  0  0  0  0
    1.0592   -0.4442   -1.0841 C   0  0  0  0  0  0  0  0  0  0  0  0
   -0.4630   -0.6027   -0.8749 C   0  0  0  0  0  0  0  0  0  0  0  0
   -1.2597   -0.0822   -2.0405 C   0  0  0  0  0  0  0  0  0  0  0  0
   -2.4460    0.5460   -1.9410 C   0  0  0  0  0  0  0  0  0  0  0  0
   -3.1354    1.0157   -3.1999 C   0  0  0  0  0  0  0  0  0  0  0  0
   -3.1038    0.7430   -0.6366 C   0  0  0  0  0  0  0  0  0  0  0  0
   -4.1802    1.5436   -0.5121 C   0  0  0  0  0  0  0  0  0  0  0  0
   -4.8895    1.7427    0.7725 C   0  0  0  0  0  0  0  0  0  0  0  0
   -5.8896    2.4573    0.8006 O   0  0  0  0  0  0  0  0  0  0  0  0
   -4.3984    1.0136    1.9920 C   0  0  0  0  0  0  0  0  0  0  0  0
   -2.9088    0.7219    1.8913 C   0  0  0  0  0  0  0  0  0  0  0  0
   -2.5019   -0.0028    0.5763 C   0  0  0  0  0  0  0  0  0  0  0  0
   -3.0650   -1.4440    0.6043 C   0  0  0  0  0  0  0  0  0  0  0  0
   -0.9374    0.0177    0.4552 C   0  0  0  0  0  0  0  0  0  0  0  0
   -0.1736   -0.6489    1.6095 C   0  0  0  0  0  0  0  0  0  0  0  0
    1.3385   -0.4503    1.4576 C   0  0  0  0  0  0  0  0  0  0  0  0
    1.9270   -0.9498    0.1040 C   0  0  0  0  0  0  0  0  0  0  0  0
    1.9677   -2.4919    0.1147 C   0  0  0  0  0  0  0  0  0  0  0  0
  1  2  1  0
  2  3  2  0
  2  4  1  0
  4  5  1  0
  4  6  1  0
  6  7  1  0
  7  8  1  0
  8  9  1  0
  9 10  1  0
 10 11  2  0
 11 12  1  0
 11 13  1  0
 13 14  2  0
 14 15  1  0
 15 16  2  0
 15 17  1  0
 17 18  1  0
 18 19  1  0
 19 20  1  0
 19 21  1  0
 21 22  1  0
 22 23  1  0
 23 24  1  0
 24 25  1  0
 19 13  1  0
 21  9  1  0
 24  4  1  0
 24  8  1  0
M  END
>  <target>  (757) 
-5.27

$$$$

     RDKit          3D

  8  7  0  0  0  0  0  0  0  0999 V2000
    3.6556   -0.3961   -0.4840 C   0  0  0  0  0  0  0  0  0  0  0  0
    2.4067    0.4700   -0.5228 C   0  0  0  0  0  0  0  0  0  0  0  0
    1.1493   -0.3466   -0.2256 C   0  0  0  0  0  0  0  0  0  0  0  0
   -0.1044    0.5280   -0.2654 C   0  0  0  0  0  0  0  0  0  0  0  0
   -1.3607   -0.2876    0.0314 C   0  0  0  0  0  0  0  0  0  0  0  0
   -2.6233    0.5554   -0.0012 C   0  0  0  0  0  0  0  0  0  0  0  0
   -2.6150    1.7616   -0.2422 O   0  0  0  0  0  0  0  0  0  0  0  0
   -3.9129   -0.1708    0.2815 C   0  0  0  0  0  0  0  0  0  0  0  0
  1  2  1  0
  2  3  1  0
  3  4  1  0
  4  5  1  0
  5  6  1  0
  6  7  2  0
  6  8  1  0
M  END
>  <target>  (758) 
-1.45

$$$$

     RDKit          3D

 10  9  0  0  0  0  0  0  0  0999 V2000
   -1.1246   -2.3339   -1.0523 C   0  0  0  0  0  0  0  0  0  0  0  0
   -0.3115   -1.1963   -1.2628 O   0  0  0  0  0  0  0  0  0  0  0  0
   -0.3984   -0.0147   -0.1660 P   0  0  0  0  0  0  0  0  0  0  0  0
   -0.3704   -0.5353    1.2400 O   0  0  0  0  0  0  0  0  0  0  0  0
    0.9007    0.9664   -0.5336 N   0  0  0  0  0  0  0  0  0  0  0  0
    2.2081    0.7270   -0.2845 C   0  0  0  0  0  0  0  0  0  0  0  0
    2.5847   -0.5472    0.4175 C   0  0  0  0  0  0  0  0  0  0  0  0
    3.0504    1.5577   -0.6216 O   0  0  0  0  0  0  0  0  0  0  0  0
   -2.1310    1.0991   -0.4817 S   0  0  0  0  0  0  0  0  0  0  0  0
   -2.2782    2.0816    1.0216 C   0  0  0  0  0  0  0  0  0  0  0  0
  1  2  1  0
  2  3  1  0
  3  4  2  0
  3  5  1  0
  5  6  1  0
  6  7  1  0
  6  8  2  0
  3  9  1  0
  9 10  1  0
M  END
>  <target>  (759) 
0.54

$$$$

     RDKit          3D

 17 16  0  0  0  0  0  0  0  0999 V2000
   -4.1090   -5.1794    0.3699 C   0  0  0  0  0  0  0  0  0  0  0  0
   -3.2793   -3.9211    0.5765 C   0  0  0  0  0  0  0  0  0  0  0  0
   -1.8513   -4.1038    0.0546 C   0  0  0  0  0  0  0  0  0  0  0  0
   -0.9425   -2.9042    0.3225 C   0  0  0  0  0  0  0  0  0  0  0  0
   -1.4087   -1.4450   -0.6494 S   0  0  0  0  0  0  0  0  0  0  0  0
   -0.0080   -0.0050   -0.0690 P   0  0  0  0  0  0  0  0  0  0  0  0
    0.0606    0.0384    1.4344 O   0  0  0  0  0  0  0  0  0  0  0  0
   -0.5852    1.8738   -0.7829 S   0  0  0  0  0  0  0  0  0  0  0  0
   -2.0395    2.2797    0.2228 C   0  0  0  0  0  0  0  0  0  0  0  0
   -2.6391    3.6400   -0.1330 C   0  0  0  0  0  0  0  0  0  0  0  0
   -1.7486    4.8240    0.2543 C   0  0  0  0  0  0  0  0  0  0  0  0
   -2.4357    6.1505   -0.0333 C   0  0  0  0  0  0  0  0  0  0  0  0
    1.8764   -0.5031   -0.8265 S   0  0  0  0  0  0  0  0  0  0  0  0
    2.9943    0.6325    0.0407 C   0  0  0  0  0  0  0  0  0  0  0  0
    4.4560    0.4419   -0.3643 C   0  0  0  0  0  0  0  0  0  0  0  0
    5.0564   -0.8848    0.1089 C   0  0  0  0  0  0  0  0  0  0  0  0
    6.5351   -0.9774   -0.2365 C   0  0  0  0  0  0  0  0  0  0  0  0
  1  2  1  0
  2  3  1  0
  3  4  1  0
  4  5  1  0
  5  6  1  0
  6  7  2  0
  6  8  1  0
  8  9  1  0
  9 10  1  0
 10 11  1  0
 11 12  1  0
  6 13  1  0
 13 14  1  0
 14 15  1  0
 15 16  1  0
 16 17  1  0
M  END
>  <target>  (760) 
-5.14

$$$$

     RDKit          3D

 11 12  0  0  0  0  0  0  0  0999 V2000
    2.0373    0.3617    0.5040 C   0  0  0  0  0  0  0  0  0  0  0  0
    1.2101    1.1949   -0.1423 C   0  0  0  0  0  0  0  0  0  0  0  0
   -0.0770    0.7346   -0.7756 C   0  0  0  0  0  0  0  0  0  0  0  0
   -1.2567    1.4155   -0.1109 C   0  0  0  0  0  0  0  0  0  0  0  0
   -1.4169    2.6206    0.0119 O   0  0  0  0  0  0  0  0  0  0  0  0
   -2.1294    0.4764    0.3286 N   0  0  0  0  0  0  0  0  0  0  0  0
   -1.7185   -0.7949    0.1008 C   0  0  0  0  0  0  0  0  0  0  0  0
   -2.3391   -1.7931    0.4346 O   0  0  0  0  0  0  0  0  0  0  0  0
   -0.3916   -0.7715   -0.6313 C   0  0  0  0  0  0  0  0  0  0  0  0
    0.6301   -1.5812    0.1236 C   0  0  0  0  0  0  0  0  0  0  0  0
    1.7440   -1.0423    0.6385 C   0  0  0  0  0  0  0  0  0  0  0  0
  1  2  2  0
  2  3  1  0
  3  4  1  0
  4  5  2  0
  4  6  1  0
  6  7  1  0
  7  8  2  0
  7  9  1  0
  9 10  1  0
 10 11  2  0
 11  1  1  0
  9  3  1  0
M  END
>  <target>  (761) 
-2.932

$$$$

     RDKit          3D

 20 21  0  0  0  0  0  0  0  0999 V2000
    4.2456    1.3951   -0.2899 N   0  0  0  0  0  0  0  0  0  0  0  0
    4.0046   -0.2097    0.1593 S   0  0  0  0  0  0  0  0  0  0  0  0
    4.5498   -0.9794   -0.9329 O   0  0  0  0  0  0  0  0  0  0  0  0
    4.4888   -0.2881    1.5162 O   0  0  0  0  0  0  0  0  0  0  0  0
    2.2535   -0.4136    0.1719 C   0  0  0  0  0  0  0  0  0  0  0  0
    1.4146    0.6642   -0.1276 C   0  0  0  0  0  0  0  0  0  0  0  0
    0.0276    0.4751   -0.1177 C   0  0  0  0  0  0  0  0  0  0  0  0
   -0.5579   -0.7597    0.1685 C   0  0  0  0  0  0  0  0  0  0  0  0
   -1.9383   -0.9489    0.2848 N   0  0  0  0  0  0  0  0  0  0  0  0
   -2.8251   -0.0080   -0.3958 C   0  0  0  0  0  0  0  0  0  0  0  0
   -2.4988    1.3197    0.1026 N   0  0  0  0  0  0  0  0  0  0  0  0
   -1.0141    1.8550   -0.4439 S   0  0  0  0  0  0  0  0  0  0  0  0
   -0.6150    2.9348    0.4283 O   0  0  0  0  0  0  0  0  0  0  0  0
   -1.0940    2.0005   -1.8792 O   0  0  0  0  0  0  0  0  0  0  0  0
   -4.3344   -0.3270   -0.1575 C   0  0  0  0  0  0  0  0  0  0  0  0
   -4.7472   -1.9452   -0.8045 Cl  0  0  0  0  0  0  0  0  0  0  0  0
   -4.7750   -0.2703    1.5795 Cl  0  0  0  0  0  0  0  0  0  0  0  0
    0.3040   -1.8126    0.5049 C   0  0  0  0  0  0  0  0  0  0  0  0
    1.7003   -1.6544    0.4942 C   0  0  0  0  0  0  0  0  0  0  0  0
    2.6437   -3.0412    0.9043 Cl  0  0  0  0  0  0  0  0  0  0  0  0
  1  2  1  0
  2  3  2  0
  2  4  2  0
  2  5  1  0
  5  6  2  0
  6  7  1  0
  7  8  2  0
  8  9  1  0
  9 10  1  0
 10 11  1  0
 11 12  1  0
 12 13  2  0
 12 14  2  0
 10 15  1  0
 15 16  1  0
 15 17  1  0
  8 18  1  0
 18 19  2  0
 19 20  1  0
 12  7  1  0
 19  5  1  0
M  END
>  <target>  (762) 
-2.68

$$$$

     RDKit          3D

  5  4  0  0  0  0  0  0  0  0999 V2000
    2.0777   -0.4354    0.0687 C   0  0  0  0  0  0  0  0  0  0  0  0
    0.9071    0.4943    0.1176 C   0  0  0  0  0  0  0  0  0  0  0  0
   -0.4019    0.1977    0.0012 C   0  0  0  0  0  0  0  0  0  0  0  0
   -0.9709   -1.1783   -0.2090 C   0  0  0  0  0  0  0  0  0  0  0  0
   -1.4416    1.2864    0.0783 C   0  0  0  0  0  0  0  0  0  0  0  0
  1  2  1  0
  2  3  2  3
  3  4  1  0
  3  5  1  0
M  END
>  <target>  (763) 
-2.56

$$$$

     RDKit          3D

  9  9  0  0  0  0  0  0  0  0999 V2000
    3.1043    0.5660   -0.3660 C   0  0  0  0  0  0  0  0  0  0  0  0
    1.6830    0.1052   -0.2372 C   0  0  0  0  0  0  0  0  0  0  0  0
    1.3743   -1.2563   -0.2593 C   0  0  0  0  0  0  0  0  0  0  0  0
    0.0541   -1.6832   -0.1080 C   0  0  0  0  0  0  0  0  0  0  0  0
   -0.9843   -0.7590    0.0786 C   0  0  0  0  0  0  0  0  0  0  0  0
   -2.3941   -1.2574    0.2392 C   0  0  0  0  0  0  0  0  0  0  0  0
   -0.6811    0.6160    0.1193 C   0  0  0  0  0  0  0  0  0  0  0  0
   -1.7544    1.6495    0.3260 C   0  0  0  0  0  0  0  0  0  0  0  0
    0.6524    1.0315   -0.0350 C   0  0  0  0  0  0  0  0  0  0  0  0
  1  2  1  0
  2  3  2  0
  3  4  1  0
  4  5  2  0
  5  6  1  0
  5  7  1  0
  7  8  1  0
  7  9  2  0
  9  2  1  0
M  END
>  <target>  (764) 
-3.31

$$$$

     RDKit          3D

 10 10  0  0  0  0  0  0  0  0999 V2000
   -2.3474   -0.9496    0.2383 O   0  0  0  0  0  0  0  0  0  0  0  0
   -1.0814   -0.4492    0.1118 C   0  0  0  0  0  0  0  0  0  0  0  0
   -0.0253   -1.3465    0.2366 C   0  0  0  0  0  0  0  0  0  0  0  0
    1.2890   -0.8874    0.1159 C   0  0  0  0  0  0  0  0  0  0  0  0
    2.5625   -2.0432    0.2793 Cl  0  0  0  0  0  0  0  0  0  0  0  0
    1.5354    0.4713   -0.1296 C   0  0  0  0  0  0  0  0  0  0  0  0
    3.1349    1.1058   -0.2898 Cl  0  0  0  0  0  0  0  0  0  0  0  0
    0.4685    1.3679   -0.2539 C   0  0  0  0  0  0  0  0  0  0  0  0
   -0.8395    0.9040   -0.1326 C   0  0  0  0  0  0  0  0  0  0  0  0
   -2.1513    2.0108   -0.2862 Cl  0  0  0  0  0  0  0  0  0  0  0  0
  1  2  1  0
  2  3  2  0
  3  4  1  0
  4  5  1  0
  4  6  2  0
  6  7  1  0
  6  8  1  0
  8  9  2  0
  9 10  1  0
  9  2  1  0
M  END
>  <target>  (765) 
-2.21

$$$$

     RDKit          3D

 14 16  0  0  0  0  0  0  0  0999 V2000
   -3.4964    0.2623   -0.1783 C   0  0  0  0  0  0  0  0  0  0  0  0
   -2.7983    1.4544   -0.3103 C   0  0  0  0  0  0  0  0  0  0  0  0
   -1.4011    1.4584   -0.2419 C   0  0  0  0  0  0  0  0  0  0  0  0
   -0.6536    0.2702   -0.0392 C   0  0  0  0  0  0  0  0  0  0  0  0
   -1.3906   -0.9254    0.0913 C   0  0  0  0  0  0  0  0  0  0  0  0
   -2.7964   -0.9239    0.0218 C   0  0  0  0  0  0  0  0  0  0  0  0
   -0.6816   -2.1037    0.2907 C   0  0  0  0  0  0  0  0  0  0  0  0
    0.6626   -2.1910    0.3692 N   0  0  0  0  0  0  0  0  0  0  0  0
    1.3715   -1.0621    0.2465 C   0  0  0  0  0  0  0  0  0  0  0  0
    2.7538   -1.1636    0.3289 C   0  0  0  0  0  0  0  0  0  0  0  0
    3.5865   -0.0505    0.2146 C   0  0  0  0  0  0  0  0  0  0  0  0
    3.0275    1.2008    0.0124 C   0  0  0  0  0  0  0  0  0  0  0  0
    1.6406    1.3285   -0.0738 C   0  0  0  0  0  0  0  0  0  0  0  0
    0.7788    0.2065    0.0403 C   0  0  0  0  0  0  0  0  0  0  0  0
  1  2  2  0
  2  3  1  0
  3  4  2  0
  4  5  1  0
  5  6  2  0
  5  7  1  0
  7  8  2  0
  8  9  1  0
  9 10  2  0
 10 11  1  0
 11 12  2  0
 12 13  1  0
 13 14  2  0
  6  1  1  0
 14  4  1  0
 14  9  1  0
M  END
>  <target>  (766) 
-2.78

$$$$

     RDKit          3D

  8  7  0  0  0  0  0  0  0  0999 V2000
    2.8933    0.6293    0.1020 C   0  0  0  0  0  0  0  0  0  0  0  0
    1.5603    0.1092   -0.4166 C   0  0  0  0  0  0  0  0  0  0  0  0
    0.5493   -0.0542    0.7204 C   0  0  0  0  0  0  0  0  0  0  0  0
   -0.8388   -0.5856    0.2999 C   0  0  0  0  0  0  0  0  0  0  0  0
   -0.7534   -2.0282   -0.2155 C   0  0  0  0  0  0  0  0  0  0  0  0
   -1.6606   -0.6088    1.4764 O   0  0  0  0  0  0  0  0  0  0  0  0
   -1.5608    0.2893   -0.7455 C   0  0  0  0  0  0  0  0  0  0  0  0
   -1.7481    1.7448   -0.3316 C   0  0  0  0  0  0  0  0  0  0  0  0
  1  2  1  0
  2  3  1  0
  3  4  1  0
  4  5  1  0
  4  6  1  0
  4  7  1  0
  7  8  1  0
M  END
>  <target>  (767) 
-0.98

$$$$

     RDKit          3D

  8  7  0  0  0  0  0  0  0  0999 V2000
   -4.2082   -0.7348    0.0353 C   0  0  0  0  0  0  0  0  0  0  0  0
   -3.0821    0.2551   -0.2165 C   0  0  0  0  0  0  0  0  0  0  0  0
   -1.7147   -0.4254   -0.1582 C   0  0  0  0  0  0  0  0  0  0  0  0
   -0.5847    0.5739   -0.4119 C   0  0  0  0  0  0  0  0  0  0  0  0
    0.7845   -0.1074   -0.3540 C   0  0  0  0  0  0  0  0  0  0  0  0
    1.9130    0.8953   -0.6049 C   0  0  0  0  0  0  0  0  0  0  0  0
    3.2981    0.2475   -0.6625 C   0  0  0  0  0  0  0  0  0  0  0  0
    3.7408   -0.3584    0.6603 C   0  0  0  0  0  0  0  0  0  0  0  0
  1  2  1  0
  2  3  1  0
  3  4  1  0
  4  5  1  0
  5  6  1  0
  6  7  1  0
  7  8  1  0
M  END
>  <target>  (768) 
-5.24

$$$$

     RDKit          3D

 14 16  0  0  0  0  0  0  0  0999 V2000
    3.6698    0.6390    0.0633 C   0  0  0  0  0  0  0  0  0  0  0  0
    3.6484   -0.7522    0.0542 C   0  0  0  0  0  0  0  0  0  0  0  0
    2.4286   -1.4301    0.0302 C   0  0  0  0  0  0  0  0  0  0  0  0
    1.2140   -0.7246    0.0150 C   0  0  0  0  0  0  0  0  0  0  0  0
   -0.0214   -1.3930   -0.0092 C   0  0  0  0  0  0  0  0  0  0  0  0
   -1.2357   -0.6867   -0.0243 C   0  0  0  0  0  0  0  0  0  0  0  0
   -2.4714   -1.3543   -0.0485 C   0  0  0  0  0  0  0  0  0  0  0  0
   -3.6698   -0.6390   -0.0633 C   0  0  0  0  0  0  0  0  0  0  0  0
   -3.6484    0.7522   -0.0542 C   0  0  0  0  0  0  0  0  0  0  0  0
   -2.4286    1.4301   -0.0302 C   0  0  0  0  0  0  0  0  0  0  0  0
   -1.2140    0.7246   -0.0150 C   0  0  0  0  0  0  0  0  0  0  0  0
    0.0214    1.3930    0.0092 C   0  0  0  0  0  0  0  0  0  0  0  0
    1.2357    0.6867    0.0243 C   0  0  0  0  0  0  0  0  0  0  0  0
    2.4714    1.3543    0.0485 C   0  0  0  0  0  0  0  0  0  0  0  0
  1  2  2  0
  2  3  1  0
  3  4  2  0
  4  5  1  0
  5  6  2  0
  6  7  1  0
  7  8  2  0
  8  9  1  0
  9 10  2  0
 10 11  1  0
 11 12  2  0
 12 13  1  0
 13 14  2  0
 14  1  1  0
 13  4  1  0
 11  6  1  0
M  END
>  <target>  (769) 
-6.35

$$$$

     RDKit          3D

  8  8  0  0  0  0  0  0  0  0999 V2000
   -2.8637   -0.1659    0.1517 N   0  0  0  0  0  0  0  0  0  0  0  0
   -1.7244   -0.9835    0.1175 N   0  0  0  0  0  0  0  0  0  0  0  0
   -0.4347   -0.4003    0.0535 C   0  0  0  0  0  0  0  0  0  0  0  0
   -0.2063    0.9056   -0.4013 C   0  0  0  0  0  0  0  0  0  0  0  0
    1.0926    1.4147   -0.5053 C   0  0  0  0  0  0  0  0  0  0  0  0
    2.1850    0.6155   -0.1794 C   0  0  0  0  0  0  0  0  0  0  0  0
    1.9800   -0.6960    0.2388 C   0  0  0  0  0  0  0  0  0  0  0  0
    0.6808   -1.2014    0.3419 C   0  0  0  0  0  0  0  0  0  0  0  0
  1  2  1  0
  2  3  1  0
  3  4  2  0
  4  5  1  0
  5  6  2  0
  6  7  1  0
  7  8  2  0
  8  3  1  0
M  END
>  <target>  (770) 
0.07

$$$$

     RDKit          3D

  4  3  0  0  0  0  0  0  0  0999 V2000
    1.1583    0.0062   -0.1336 C   0  0  0  0  0  0  0  0  0  0  0  0
   -0.2312    0.5229    0.1852 C   0  0  0  0  0  0  0  0  0  0  0  0
   -1.3007   -0.5240   -0.0064 C   0  0  0  0  0  0  0  0  0  0  0  0
   -1.0939   -1.6741   -0.3785 O   0  0  0  0  0  0  0  0  0  0  0  0
  1  2  1  0
  2  3  1  0
  3  4  2  0
M  END
>  <target>  (771) 
0.58

$$$$

     RDKit          3D

  8  8  0  0  0  0  0  0  0  0999 V2000
   -0.6753   -1.4520   -0.5896 C   0  0  0  0  0  0  0  0  0  0  0  0
   -1.7859   -0.6176    0.0485 C   0  0  0  0  0  0  0  0  0  0  0  0
   -1.3775    0.6395    0.8100 C   0  0  0  0  0  0  0  0  0  0  0  0
   -0.7290    1.7439   -0.0186 C   0  0  0  0  0  0  0  0  0  0  0  0
    0.6195    1.4412   -0.6718 C   0  0  0  0  0  0  0  0  0  0  0  0
    1.6248    0.7080    0.2165 C   0  0  0  0  0  0  0  0  0  0  0  0
    1.7577   -0.7887   -0.0740 C   0  0  0  0  0  0  0  0  0  0  0  0
    0.5599   -1.6715    0.2841 C   0  0  0  0  0  0  0  0  0  0  0  0
  1  2  1  0
  2  3  1  0
  3  4  1  0
  4  5  1  0
  5  6  1  0
  6  7  1  0
  7  8  1  0
  8  1  1  0
M  END
>  <target>  (772) 
-4.15

$$$$

     RDKit          3D

 15 15  0  0  0  0  0  0  0  0999 V2000
    0.0891   -0.0670   -2.3973 O   0  0  0  0  0  0  0  0  0  0  0  0
   -0.0822    0.4018   -1.2722 C   0  0  0  0  0  0  0  0  0  0  0  0
   -0.4880    1.6978   -1.1315 N   0  0  0  0  0  0  0  0  0  0  0  0
   -0.4139    2.4282    0.0103 C   0  0  0  0  0  0  0  0  0  0  0  0
   -0.5647    3.6455    0.0048 O   0  0  0  0  0  0  0  0  0  0  0  0
   -0.1210    1.7544    1.1527 N   0  0  0  0  0  0  0  0  0  0  0  0
    0.2084    0.4326    1.2549 C   0  0  0  0  0  0  0  0  0  0  0  0
    0.5271   -0.0339    2.3486 O   0  0  0  0  0  0  0  0  0  0  0  0
    0.0894   -0.4079   -0.0013 C   0  0  0  0  0  0  0  0  0  0  0  0
   -1.1517   -1.3288    0.1464 C   0  0  0  0  0  0  0  0  0  0  0  0
   -2.4684   -0.6188    0.3440 C   0  0  0  0  0  0  0  0  0  0  0  0
   -3.4111   -0.5182   -0.6013 C   0  0  0  0  0  0  0  0  0  0  0  0
    1.3500   -1.3016   -0.1271 C   0  0  0  0  0  0  0  0  0  0  0  0
    2.6325   -0.5376   -0.3529 C   0  0  0  0  0  0  0  0  0  0  0  0
    3.5622   -0.3425    0.5902 C   0  0  0  0  0  0  0  0  0  0  0  0
  1  2  2  0
  2  3  1  0
  3  4  1  0
  4  5  2  0
  4  6  1  0
  6  7  1  0
  7  8  2  0
  7  9  1  0
  9 10  1  0
 10 11  1  0
 11 12  2  0
  9 13  1  0
 13 14  1  0
 14 15  2  0
  9  2  1  0
M  END
>  <target>  (773) 
-2.077

$$$$

     RDKit          3D

  4  3  0  0  0  0  0  0  0  0999 V2000
   -0.7701    1.5185   -0.3526 Cl  0  0  0  0  0  0  0  0  0  0  0  0
    0.0012   -0.0062    0.1156 C   0  0  0  0  0  0  0  0  0  0  0  0
   -0.9184   -1.3864   -0.5075 Cl  0  0  0  0  0  0  0  0  0  0  0  0
    1.6749   -0.0608   -0.4626 Cl  0  0  0  0  0  0  0  0  0  0  0  0
  1  2  1  0
  2  3  1  0
  2  4  1  0
M  END
>  <target>  (774) 
-1.17

$$$$

     RDKit          3D

  8  8  0  0  0  0  0  0  0  0999 V2000
    2.7679   -0.0476   -0.5383 S   0  0  0  0  0  0  0  0  0  0  0  0
    1.0768   -0.1384   -0.1865 C   0  0  0  0  0  0  0  0  0  0  0  0
    0.5208   -1.2568    0.1369 N   0  0  0  0  0  0  0  0  0  0  0  0
   -0.8258   -1.2023    0.3928 C   0  0  0  0  0  0  0  0  0  0  0  0
   -1.5724   -0.0950    0.3291 C   0  0  0  0  0  0  0  0  0  0  0  0
   -0.9014    1.1610   -0.0433 C   0  0  0  0  0  0  0  0  0  0  0  0
   -1.5163    2.2165   -0.1232 O   0  0  0  0  0  0  0  0  0  0  0  0
    0.4331    1.0523   -0.2865 N   0  0  0  0  0  0  0  0  0  0  0  0
  1  2  1  0
  2  3  2  0
  3  4  1  0
  4  5  2  0
  5  6  1  0
  6  7  2  0
  6  8  1  0
  8  2  1  0
M  END
>  <target>  (775) 
-2.273

$$$$

     RDKit          3D

 23 25  0  0  0  0  0  0  0  0999 V2000
   -3.8841   -4.8307   -0.5002 Cl  0  0  0  0  0  0  0  0  0  0  0  0
   -3.0209   -3.3996   -0.0934 C   0  0  0  0  0  0  0  0  0  0  0  0
   -2.5513   -3.2196    1.2049 C   0  0  0  0  0  0  0  0  0  0  0  0
   -1.8525   -2.0557    1.5359 C   0  0  0  0  0  0  0  0  0  0  0  0
   -1.6099   -1.0645    0.5703 C   0  0  0  0  0  0  0  0  0  0  0  0
   -0.8642    0.1905    0.9823 C   0  0  0  0  0  0  0  0  0  0  0  0
   -0.2543    0.9352   -0.1270 N   0  0  0  0  0  0  0  0  0  0  0  0
   -0.7265    2.3038   -0.3897 C   0  0  0  0  0  0  0  0  0  0  0  0
   -2.2556    2.4982   -0.4344 C   0  0  0  0  0  0  0  0  0  0  0  0
   -2.5746    3.5351    0.6378 C   0  0  0  0  0  0  0  0  0  0  0  0
   -1.3042    4.3608    0.7417 C   0  0  0  0  0  0  0  0  0  0  0  0
   -0.2065    3.3135    0.6481 C   0  0  0  0  0  0  0  0  0  0  0  0
    1.0364    0.6270   -0.5980 C   0  0  0  0  0  0  0  0  0  0  0  0
    1.7179    1.4606   -1.1896 O   0  0  0  0  0  0  0  0  0  0  0  0
    1.4341   -0.6690   -0.3479 N   0  0  0  0  0  0  0  0  0  0  0  0
    2.7132   -1.2282   -0.5465 C   0  0  0  0  0  0  0  0  0  0  0  0
    3.8617   -0.4741   -0.7938 C   0  0  0  0  0  0  0  0  0  0  0  0
    5.0996   -1.1030   -0.9616 C   0  0  0  0  0  0  0  0  0  0  0  0
    5.1998   -2.4897   -0.8771 C   0  0  0  0  0  0  0  0  0  0  0  0
    4.0619   -3.2502   -0.6214 C   0  0  0  0  0  0  0  0  0  0  0  0
    2.8251   -2.6218   -0.4536 C   0  0  0  0  0  0  0  0  0  0  0  0
   -2.1001   -1.2606   -0.7304 C   0  0  0  0  0  0  0  0  0  0  0  0
   -2.7982   -2.4250   -1.0621 C   0  0  0  0  0  0  0  0  0  0  0  0
  1  2  1  0
  2  3  2  0
  3  4  1  0
  4  5  2  0
  5  6  1  0
  6  7  1  0
  7  8  1  0
  8  9  1  0
  9 10  1  0
 10 11  1  0
 11 12  1  0
  7 13  1  0
 13 14  2  0
 13 15  1  0
 15 16  1  0
 16 17  2  0
 17 18  1  0
 18 19  2  0
 19 20  1  0
 20 21  2  0
  5 22  1  0
 22 23  2  0
 23  2  1  0
 12  8  1  0
 21 16  1  0
M  END
>  <target>  (776) 
-5.915

$$$$

     RDKit          3D

  7  7  0  0  0  0  0  0  0  0999 V2000
    2.4627    0.4515   -0.1218 C   0  0  0  0  0  0  0  0  0  0  0  0
    0.9743    0.2657   -0.0615 C   0  0  0  0  0  0  0  0  0  0  0  0
    0.1238    1.3079   -0.0473 C   0  0  0  0  0  0  0  0  0  0  0  0
   -1.3675    1.1642    0.0506 C   0  0  0  0  0  0  0  0  0  0  0  0
   -1.8115   -0.2407    0.4591 C   0  0  0  0  0  0  0  0  0  0  0  0
   -1.0131   -1.3060   -0.2831 C   0  0  0  0  0  0  0  0  0  0  0  0
    0.4877   -1.1629   -0.0153 C   0  0  0  0  0  0  0  0  0  0  0  0
  1  2  1  0
  2  3  2  0
  3  4  1  0
  4  5  1  0
  5  6  1  0
  6  7  1  0
  7  2  1  0
M  END
>  <target>  (777) 
-3.27

$$$$

     RDKit          3D

  9  8  0  0  0  0  0  0  0  0999 V2000
    3.8993   -0.0399   -0.3659 C   0  0  0  0  0  0  0  0  0  0  0  0
    2.6572   -0.3437    0.4565 C   0  0  0  0  0  0  0  0  0  0  0  0
    1.3830    0.0764   -0.2770 C   0  0  0  0  0  0  0  0  0  0  0  0
    0.1344   -0.2321    0.5577 C   0  0  0  0  0  0  0  0  0  0  0  0
   -1.1618    0.2255   -0.1309 C   0  0  0  0  0  0  0  0  0  0  0  0
   -2.3557    0.0861    0.8257 C   0  0  0  0  0  0  0  0  0  0  0  0
   -3.6304    0.7068    0.2677 C   0  0  0  0  0  0  0  0  0  0  0  0
   -1.4040   -0.6251   -1.3614 C   0  0  0  0  0  0  0  0  0  0  0  0
   -1.4695   -0.1626   -2.4963 O   0  0  0  0  0  0  0  0  0  0  0  0
  1  2  1  0
  2  3  1  0
  3  4  1  0
  4  5  1  0
  5  6  1  0
  6  7  1  0
  5  8  1  0
  8  9  2  0
M  END
>  <target>  (778) 
-2.13

$$$$

     RDKit          3D

 19 21  0  0  0  0  0  0  0  0999 V2000
   -2.3330   -3.0360    0.0411 C   0  0  0  0  0  0  0  0  0  0  0  0
   -2.1946   -1.6246    0.1294 O   0  0  0  0  0  0  0  0  0  0  0  0
   -0.9032   -1.1207    0.1143 C   0  0  0  0  0  0  0  0  0  0  0  0
    0.2956   -1.8415    0.0207 C   0  0  0  0  0  0  0  0  0  0  0  0
    0.4362   -3.1989   -0.0681 O   0  0  0  0  0  0  0  0  0  0  0  0
    1.7627   -3.4748   -0.1154 C   0  0  0  0  0  0  0  0  0  0  0  0
    2.4947   -2.3149   -0.0644 C   0  0  0  0  0  0  0  0  0  0  0  0
    1.5557   -1.2475    0.0131 C   0  0  0  0  0  0  0  0  0  0  0  0
    1.6505    0.1579    0.0846 C   0  0  0  0  0  0  0  0  0  0  0  0
    2.8948    0.7378    0.1352 O   0  0  0  0  0  0  0  0  0  0  0  0
    3.3647    1.0252   -1.1827 C   0  0  0  0  0  0  0  0  0  0  0  0
    0.4706    0.9182    0.2044 C   0  0  0  0  0  0  0  0  0  0  0  0
    0.4966    2.3956    0.3123 C   0  0  0  0  0  0  0  0  0  0  0  0
    1.5128    3.0741    0.2439 O   0  0  0  0  0  0  0  0  0  0  0  0
   -0.7982    3.0707    0.4920 C   0  0  0  0  0  0  0  0  0  0  0  0
   -1.9258    2.3524    0.4908 C   0  0  0  0  0  0  0  0  0  0  0  0
   -3.2771    2.9737    0.6574 C   0  0  0  0  0  0  0  0  0  0  0  0
   -1.9629    0.9822    0.3317 O   0  0  0  0  0  0  0  0  0  0  0  0
   -0.7779    0.2823    0.2160 C   0  0  0  0  0  0  0  0  0  0  0  0
  1  2  1  0
  2  3  1  0
  3  4  2  0
  4  5  1  0
  5  6  1  0
  6  7  2  0
  7  8  1  0
  8  9  2  0
  9 10  1  0
 10 11  1  0
  9 12  1  0
 12 13  1  0
 13 14  2  0
 13 15  1  0
 15 16  2  0
 16 17  1  0
 16 18  1  0
 18 19  1  0
  8  4  1  0
 19  3  1  0
 19 12  2  0
M  END
>  <target>  (779) 
-3.0210000000000004

$$$$

     RDKit          3D

 16 16  0  0  0  0  0  0  0  0999 V2000
   -1.1552    0.5466   -2.1694 O   0  0  0  0  0  0  0  0  0  0  0  0
   -1.7167    0.3594   -1.0930 C   0  0  0  0  0  0  0  0  0  0  0  0
   -2.9657    0.8697   -0.8734 N   0  0  0  0  0  0  0  0  0  0  0  0
   -3.4154    1.2338    0.3564 C   0  0  0  0  0  0  0  0  0  0  0  0
   -4.2875    2.0854    0.4924 O   0  0  0  0  0  0  0  0  0  0  0  0
   -2.7950    0.6762    1.4301 N   0  0  0  0  0  0  0  0  0  0  0  0
   -1.5606    0.0875    1.3905 C   0  0  0  0  0  0  0  0  0  0  0  0
   -0.8991   -0.0225    2.4201 O   0  0  0  0  0  0  0  0  0  0  0  0
   -1.1321   -0.4744    0.0399 C   0  0  0  0  0  0  0  0  0  0  0  0
   -1.7667   -1.8970   -0.0331 C   0  0  0  0  0  0  0  0  0  0  0  0
   -1.3913   -2.7240   -1.2581 C   0  0  0  0  0  0  0  0  0  0  0  0
    0.4138   -0.5501   -0.0593 C   0  0  0  0  0  0  0  0  0  0  0  0
    1.1325    0.8008    0.1234 C   0  0  0  0  0  0  0  0  0  0  0  0
    2.6437    0.7287   -0.1740 C   0  0  0  0  0  0  0  0  0  0  0  0
    3.2531    2.1314   -0.1062 C   0  0  0  0  0  0  0  0  0  0  0  0
    3.3848   -0.2024    0.7866 C   0  0  0  0  0  0  0  0  0  0  0  0
  1  2  2  0
  2  3  1  0
  3  4  1  0
  4  5  2  0
  4  6  1  0
  6  7  1  0
  7  8  2  0
  7  9  1  0
  9 10  1  0
 10 11  1  0
  9 12  1  0
 12 13  1  0
 13 14  1  0
 14 15  1  0
 14 16  1  0
  9  2  1  0
M  END
>  <target>  (780) 
-2.658

$$$$

     RDKit          3D

 20 24  0  0  0  0  0  0  0  0999 V2000
    4.6662    0.6352    0.0450 C   0  0  0  0  0  0  0  0  0  0  0  0
    3.8365    1.6647    0.4650 C   0  0  0  0  0  0  0  0  0  0  0  0
    2.4501    1.4919    0.4576 C   0  0  0  0  0  0  0  0  0  0  0  0
    1.8546    0.2839    0.0297 C   0  0  0  0  0  0  0  0  0  0  0  0
    0.4692    0.0283   -0.0088 C   0  0  0  0  0  0  0  0  0  0  0  0
   -0.0181   -1.2380   -0.4631 C   0  0  0  0  0  0  0  0  0  0  0  0
    0.8289   -2.2466   -0.8760 C   0  0  0  0  0  0  0  0  0  0  0  0
    2.1993   -1.9991   -0.8400 C   0  0  0  0  0  0  0  0  0  0  0  0
    2.7202   -0.7630   -0.3984 C   0  0  0  0  0  0  0  0  0  0  0  0
    4.1106   -0.5687   -0.3831 C   0  0  0  0  0  0  0  0  0  0  0  0
   -1.4695   -1.2107   -0.3928 C   0  0  0  0  0  0  0  0  0  0  0  0
   -2.4406   -2.1479   -0.7038 C   0  0  0  0  0  0  0  0  0  0  0  0
   -3.7904   -1.8048   -0.5195 C   0  0  0  0  0  0  0  0  0  0  0  0
   -4.1609   -0.5364   -0.0289 C   0  0  0  0  0  0  0  0  0  0  0  0
   -3.1746    0.4169    0.2875 C   0  0  0  0  0  0  0  0  0  0  0  0
   -3.3713    1.7157    0.7823 C   0  0  0  0  0  0  0  0  0  0  0  0
   -2.2627    2.5414    1.0458 C   0  0  0  0  0  0  0  0  0  0  0  0
   -0.9438    2.0963    0.8244 C   0  0  0  0  0  0  0  0  0  0  0  0
   -0.7293    0.8170    0.3363 C   0  0  0  0  0  0  0  0  0  0  0  0
   -1.8481    0.0293    0.0874 C   0  0  0  0  0  0  0  0  0  0  0  0
  1  2  2  0
  2  3  1  0
  3  4  2  0
  4  5  1  0
  5  6  2  0
  6  7  1  0
  7  8  2  0
  8  9  1  0
  9 10  2  0
  6 11  1  0
 11 12  2  0
 12 13  1  0
 13 14  2  0
 14 15  1  0
 15 16  1  0
 16 17  2  0
 17 18  1  0
 18 19  2  0
 19 20  1  0
 10  1  1  0
  9  4  1  0
 19  5  1  0
 20 11  1  0
 20 15  2  0
M  END
>  <target>  (781) 
-8.0

$$$$

     RDKit          3D

  7  6  0  0  0  0  0  0  0  0999 V2000
   -2.4420    0.7286    0.2269 C   0  0  0  0  0  0  0  0  0  0  0  0
   -1.0938    0.8254   -0.4762 C   0  0  0  0  0  0  0  0  0  0  0  0
   -0.0115   -0.0303    0.1991 C   0  0  0  0  0  0  0  0  0  0  0  0
    1.3644    0.2574   -0.4205 C   0  0  0  0  0  0  0  0  0  0  0  0
    2.5020   -0.4137    0.3391 C   0  0  0  0  0  0  0  0  0  0  0  0
   -0.3463   -1.4971    0.0182 C   0  0  0  0  0  0  0  0  0  0  0  0
   -0.5445   -2.2625    0.9569 O   0  0  0  0  0  0  0  0  0  0  0  0
  1  2  1  0
  2  3  1  0
  3  4  1  0
  4  5  1  0
  3  6  1  0
  6  7  2  0
M  END
>  <target>  (782) 
-1.52

$$$$

     RDKit          3D

  7  6  0  0  0  0  0  0  0  0999 V2000
   -3.6975   -0.0762    0.2348 C   0  0  0  0  0  0  0  0  0  0  0  0
   -2.3763    0.5001   -0.2414 C   0  0  0  0  0  0  0  0  0  0  0  0
   -1.1864   -0.2265    0.3721 C   0  0  0  0  0  0  0  0  0  0  0  0
    0.0087    0.3737   -0.1246 O   0  0  0  0  0  0  0  0  0  0  0  0
    1.1752   -0.2537    0.4057 C   0  0  0  0  0  0  0  0  0  0  0  0
    2.3984    0.4453   -0.1735 C   0  0  0  0  0  0  0  0  0  0  0  0
    3.6919   -0.1611    0.3398 C   0  0  0  0  0  0  0  0  0  0  0  0
  1  2  1  0
  2  3  1  0
  3  4  1  0
  4  5  1  0
  5  6  1  0
  6  7  1  0
M  END
>  <target>  (783) 
-1.62

$$$$

     RDKit          3D

 15 14  0  0  0  0  0  0  0  0999 V2000
    6.4474   -0.3270   -1.9660 C   0  0  0  0  0  0  0  0  0  0  0  0
    5.3643    0.2972   -1.1007 C   0  0  0  0  0  0  0  0  0  0  0  0
    4.7146   -0.7383   -0.1831 C   0  0  0  0  0  0  0  0  0  0  0  0
    3.6252   -0.1060    0.6861 C   0  0  0  0  0  0  0  0  0  0  0  0
    2.9729   -1.1454    1.5998 C   0  0  0  0  0  0  0  0  0  0  0  0
    1.9542   -0.5474    2.5749 C   0  0  0  0  0  0  0  0  0  0  0  0
    0.7699    0.1862    1.9380 C   0  0  0  0  0  0  0  0  0  0  0  0
   -0.0711   -0.6991    1.0160 C   0  0  0  0  0  0  0  0  0  0  0  0
   -1.3030    0.0503    0.5004 C   0  0  0  0  0  0  0  0  0  0  0  0
   -2.1432   -0.8350   -0.4226 C   0  0  0  0  0  0  0  0  0  0  0  0
   -3.3267   -0.1008   -1.0596 C   0  0  0  0  0  0  0  0  0  0  0  0
   -4.3883    0.3364   -0.0473 C   0  0  0  0  0  0  0  0  0  0  0  0
   -5.5996    0.9585   -0.7503 C   0  0  0  0  0  0  0  0  0  0  0  0
   -6.6858    1.3757    0.2337 C   0  0  0  0  0  0  0  0  0  0  0  0
   -6.2001    2.4036    1.0851 O   0  0  0  0  0  0  0  0  0  0  0  0
  1  2  1  0
  2  3  1  0
  3  4  1  0
  4  5  1  0
  5  6  1  0
  6  7  1  0
  7  8  1  0
  8  9  1  0
  9 10  1  0
 10 11  1  0
 11 12  1  0
 12 13  1  0
 13 14  1  0
 14 15  1  0
M  END
>  <target>  (784) 
-5.84

$$$$

     RDKit          3D

 10 10  0  0  0  0  0  0  0  0999 V2000
    2.3869    0.6864   -0.2485 O   0  0  0  0  0  0  0  0  0  0  0  0
    1.0864    0.2625   -0.1214 C   0  0  0  0  0  0  0  0  0  0  0  0
    0.7892   -1.0924   -0.2999 C   0  0  0  0  0  0  0  0  0  0  0  0
    2.0173   -2.2442   -0.6761 Cl  0  0  0  0  0  0  0  0  0  0  0  0
   -0.5266   -1.5413   -0.1745 C   0  0  0  0  0  0  0  0  0  0  0  0
   -1.5474   -0.6377    0.1293 C   0  0  0  0  0  0  0  0  0  0  0  0
   -1.2554    0.7182    0.3088 C   0  0  0  0  0  0  0  0  0  0  0  0
   -2.5694    1.7762    0.6826 Cl  0  0  0  0  0  0  0  0  0  0  0  0
    0.0639    1.1729    0.1839 C   0  0  0  0  0  0  0  0  0  0  0  0
    0.4789    2.8427    0.3965 Cl  0  0  0  0  0  0  0  0  0  0  0  0
  1  2  1  0
  2  3  2  0
  3  4  1  0
  3  5  1  0
  5  6  2  0
  6  7  1  0
  7  8  1  0
  7  9  2  0
  9 10  1  0
  9  2  1  0
M  END
>  <target>  (785) 
-2.64

$$$$

     RDKit          3D

  4  3  0  0  0  0  0  0  0  0999 V2000
    1.1464   -0.0783   -0.1321 N   0  0  0  0  0  0  0  0  0  0  0  0
   -0.0917    0.4592   -0.0993 C   0  0  0  0  0  0  0  0  0  0  0  0
   -0.3251    1.6284   -0.3522 O   0  0  0  0  0  0  0  0  0  0  0  0
   -1.0441   -0.4345    0.2430 N   0  0  0  0  0  0  0  0  0  0  0  0
  1  2  1  0
  2  3  2  0
  2  4  1  0
M  END
>  <target>  (786) 
0.96

$$$$

     RDKit          3D

  5  4  0  0  0  0  0  0  0  0999 V2000
   -1.8789    0.5974   -0.1360 C   0  0  0  0  0  0  0  0  0  0  0  0
   -0.3917    0.5392   -0.4471 C   0  0  0  0  0  0  0  0  0  0  0  0
    0.3558   -0.3422    0.5517 C   0  0  0  0  0  0  0  0  0  0  0  0
    1.7925   -0.3923    0.2428 C   0  0  0  0  0  0  0  0  0  0  0  0
    2.9663   -0.4354   -0.0066 C   0  0  0  0  0  0  0  0  0  0  0  0
  1  2  1  0
  2  3  1  0
  3  4  1  0
  4  5  3  0
M  END
>  <target>  (787) 
-1.64

$$$$

     RDKit          3D

  8  8  0  0  0  0  0  0  0  0999 V2000
    2.8411   -1.5738   -0.0031 Br  0  0  0  0  0  0  0  0  0  0  0  0
    1.2019   -0.6312   -0.0015 C   0  0  0  0  0  0  0  0  0  0  0  0
    1.2085    0.7641   -0.0080 C   0  0  0  0  0  0  0  0  0  0  0  0
    0.0001    1.4624   -0.0068 C   0  0  0  0  0  0  0  0  0  0  0  0
   -1.2084    0.7643    0.0009 C   0  0  0  0  0  0  0  0  0  0  0  0
   -1.2020   -0.6310    0.0073 C   0  0  0  0  0  0  0  0  0  0  0  0
   -2.8413   -1.5734    0.0177 Br  0  0  0  0  0  0  0  0  0  0  0  0
   -0.0001   -1.3368    0.0062 C   0  0  0  0  0  0  0  0  0  0  0  0
  1  2  1  0
  2  3  2  0
  3  4  1  0
  4  5  2  0
  5  6  1  0
  6  7  1  0
  6  8  2  0
  8  2  1  0
M  END
>  <target>  (788) 
-3.54

$$$$

     RDKit          3D

 19 18  0  0  0  0  0  0  0  0999 V2000
   -9.6678   -1.2142   -0.9268 C   0  0  0  0  0  0  0  0  0  0  0  0
   -8.1735   -0.9292   -0.9200 C   0  0  0  0  0  0  0  0  0  0  0  0
   -7.7736   -0.0805    0.2875 C   0  0  0  0  0  0  0  0  0  0  0  0
   -6.2619    0.1419    0.4001 C   0  0  0  0  0  0  0  0  0  0  0  0
   -5.6850    0.9691   -0.7517 C   0  0  0  0  0  0  0  0  0  0  0  0
   -4.2267    1.3829   -0.5288 C   0  0  0  0  0  0  0  0  0  0  0  0
   -3.2578    0.1989   -0.4956 C   0  0  0  0  0  0  0  0  0  0  0  0
   -1.8071    0.6734   -0.3835 C   0  0  0  0  0  0  0  0  0  0  0  0
   -0.8365   -0.5083   -0.3461 C   0  0  0  0  0  0  0  0  0  0  0  0
    0.6144   -0.0338   -0.2350 C   0  0  0  0  0  0  0  0  0  0  0  0
    1.5824   -1.2185   -0.1938 C   0  0  0  0  0  0  0  0  0  0  0  0
    3.0575   -0.8036   -0.2038 C   0  0  0  0  0  0  0  0  0  0  0  0
    3.4918   -0.0752    1.0709 C   0  0  0  0  0  0  0  0  0  0  0  0
    4.9682    0.3379    1.0602 C   0  0  0  0  0  0  0  0  0  0  0  0
    5.9320   -0.8516    1.0800 C   0  0  0  0  0  0  0  0  0  0  0  0
    7.3917   -0.4435    1.3044 C   0  0  0  0  0  0  0  0  0  0  0  0
    7.9699    0.3918    0.1632 C   0  0  0  0  0  0  0  0  0  0  0  0
    9.4508    0.6805    0.3771 C   0  0  0  0  0  0  0  0  0  0  0  0
    9.9464    1.4753   -0.6920 O   0  0  0  0  0  0  0  0  0  0  0  0
  1  2  1  0
  2  3  1  0
  3  4  1  0
  4  5  1  0
  5  6  1  0
  6  7  1  0
  7  8  1  0
  8  9  1  0
  9 10  1  0
 10 11  1  0
 11 12  1  0
 12 13  1  0
 13 14  1  0
 14 15  1  0
 15 16  1  0
 16 17  1  0
 17 18  1  0
 18 19  1  0
M  END
>  <target>  (789) 
-8.4

$$$$

     RDKit          3D

 10 10  0  0  0  0  0  0  0  0999 V2000
    3.4544    0.1355    0.1066 C   0  0  0  0  0  0  0  0  0  0  0  0
    2.0655    0.6402   -0.1981 C   0  0  0  0  0  0  0  0  0  0  0  0
    1.8981    1.7488   -0.6931 O   0  0  0  0  0  0  0  0  0  0  0  0
    1.0919   -0.2899    0.1185 N   0  0  0  0  0  0  0  0  0  0  0  0
   -0.3040   -0.1594   -0.0355 C   0  0  0  0  0  0  0  0  0  0  0  0
   -0.9317    0.9803   -0.5407 C   0  0  0  0  0  0  0  0  0  0  0  0
   -2.3247    1.0288   -0.6603 C   0  0  0  0  0  0  0  0  0  0  0  0
   -3.1015   -0.0612   -0.2757 C   0  0  0  0  0  0  0  0  0  0  0  0
   -2.4861   -1.2027    0.2299 C   0  0  0  0  0  0  0  0  0  0  0  0
   -1.0945   -1.2510    0.3494 C   0  0  0  0  0  0  0  0  0  0  0  0
  1  2  1  0
  2  3  2  0
  2  4  1  0
  4  5  1  0
  5  6  2  0
  6  7  1  0
  7  8  2  0
  8  9  1  0
  9 10  2  0
 10  5  1  0
M  END
>  <target>  (790) 
-1.33

$$$$

     RDKit          3D

 22 25  0  0  0  0  0  0  0  0999 V2000
    1.5033    1.0724    1.2842 C   0  0  0  0  0  0  0  0  0  0  0  0
    2.8407    1.4483    1.4568 C   0  0  0  0  0  0  0  0  0  0  0  0
    3.8174    0.8820    0.6546 C   0  0  0  0  0  0  0  0  0  0  0  0
    5.1200    1.2450    0.8302 O   0  0  0  0  0  0  0  0  0  0  0  0
    3.4774   -0.0614   -0.3046 C   0  0  0  0  0  0  0  0  0  0  0  0
    4.4797   -0.6189   -1.0543 O   0  0  0  0  0  0  0  0  0  0  0  0
    2.1469   -0.4378   -0.4915 C   0  0  0  0  0  0  0  0  0  0  0  0
    1.9415   -1.4327   -1.4242 O   0  0  0  0  0  0  0  0  0  0  0  0
    0.5666   -1.6543   -1.7981 C   0  0  0  0  0  0  0  0  0  0  0  0
   -0.3747   -1.6414   -0.5918 C   0  0  0  0  0  0  0  0  0  0  0  0
   -0.0434   -2.6857    0.3270 O   0  0  0  0  0  0  0  0  0  0  0  0
   -1.8626   -1.7580   -0.9600 C   0  0  0  0  0  0  0  0  0  0  0  0
   -2.4840   -0.5698   -0.2881 C   0  0  0  0  0  0  0  0  0  0  0  0
   -3.7816   -0.2712   -0.1573 C   0  0  0  0  0  0  0  0  0  0  0  0
   -4.1556    1.0101    0.4939 C   0  0  0  0  0  0  0  0  0  0  0  0
   -5.3275    1.3260    0.6761 O   0  0  0  0  0  0  0  0  0  0  0  0
   -3.0585    1.9553    0.8909 C   0  0  0  0  0  0  0  0  0  0  0  0
   -3.4210    3.1916    1.3906 O   0  0  0  0  0  0  0  0  0  0  0  0
   -1.7722    1.6066    0.7445 C   0  0  0  0  0  0  0  0  0  0  0  0
   -1.4419    0.2958    0.2389 C   0  0  0  0  0  0  0  0  0  0  0  0
   -0.2467   -0.2970    0.0804 C   0  0  0  0  0  0  0  0  0  0  0  0
    1.1345    0.1489    0.2934 C   0  0  0  0  0  0  0  0  0  0  0  0
  1  2  2  0
  2  3  1  0
  3  4  1  0
  3  5  2  0
  5  6  1  0
  5  7  1  0
  7  8  1  0
  8  9  1  0
  9 10  1  0
 10 11  1  0
 10 12  1  0
 12 13  1  0
 13 14  2  0
 14 15  1  0
 15 16  2  0
 15 17  1  0
 17 18  1  0
 17 19  2  0
 19 20  1  0
 20 21  2  0
 21 22  1  0
 22  1  1  0
 22  7  2  0
 21 10  1  0
 20 13  1  0
M  END
>  <target>  (791) 
-2.7

$$$$

     RDKit          3D

 10 10  0  0  0  0  0  0  0  0999 V2000
    2.2152    1.2198    0.3185 C   0  0  0  0  0  0  0  0  0  0  0  0
    3.0193    0.2099    0.7122 N   0  0  0  0  0  0  0  0  0  0  0  0
    2.4601   -1.0135    0.8276 C   0  0  0  0  0  0  0  0  0  0  0  0
    1.1254   -1.2701    0.5785 C   0  0  0  0  0  0  0  0  0  0  0  0
    0.3117   -0.2035    0.1937 C   0  0  0  0  0  0  0  0  0  0  0  0
   -1.1233   -0.4796   -0.0783 C   0  0  0  0  0  0  0  0  0  0  0  0
   -1.4918   -1.6105   -0.3851 O   0  0  0  0  0  0  0  0  0  0  0  0
   -2.0019    0.5883    0.0684 N   0  0  0  0  0  0  0  0  0  0  0  0
   -3.3881    0.3541   -0.0754 N   0  0  0  0  0  0  0  0  0  0  0  0
    0.8665    1.0686    0.0473 C   0  0  0  0  0  0  0  0  0  0  0  0
  1  2  2  0
  2  3  1  0
  3  4  2  0
  4  5  1  0
  5  6  1  0
  6  7  2  0
  6  8  1  0
  8  9  1  0
  5 10  2  0
 10  1  1  0
M  END
>  <target>  (792) 
0.009000000000000001

$$$$

     RDKit          3D

 17 19  0  0  0  0  0  0  0  0999 V2000
    2.6677    1.5313    0.0369 O   0  0  0  0  0  0  0  0  0  0  0  0
    1.5557    0.8384    0.5757 C   0  0  0  0  0  0  0  0  0  0  0  0
    1.9587   -0.5820    0.8004 C   0  0  0  0  0  0  0  0  0  0  0  0
    1.3061   -1.4509    0.0199 C   0  0  0  0  0  0  0  0  0  0  0  0
    0.3269   -0.7661   -0.8823 C   0  0  0  0  0  0  0  0  0  0  0  0
    0.4593    0.7504   -0.4915 C   0  0  0  0  0  0  0  0  0  0  0  0
   -1.0005    1.0992   -0.0614 C   0  0  0  0  0  0  0  0  0  0  0  0
   -1.3136    2.8264    0.0049 Cl  0  0  0  0  0  0  0  0  0  0  0  0
   -1.3595    0.3093    1.1844 C   0  0  0  0  0  0  0  0  0  0  0  0
   -1.4843   -0.9731    0.8232 C   0  0  0  0  0  0  0  0  0  0  0  0
   -1.8105   -2.3073    1.8131 Cl  0  0  0  0  0  0  0  0  0  0  0  0
   -1.1985   -1.0511   -0.6647 C   0  0  0  0  0  0  0  0  0  0  0  0
   -1.7713   -2.4881   -1.4950 Cl  0  0  0  0  0  0  0  0  0  0  0  0
   -1.8413    0.2987   -1.1132 C   0  0  0  0  0  0  0  0  0  0  0  0
   -1.5390    0.7416   -2.8313 Cl  0  0  0  0  0  0  0  0  0  0  0  0
   -3.6325    0.3959   -0.8828 Cl  0  0  0  0  0  0  0  0  0  0  0  0
   -1.5031    0.9692    2.7373 Cl  0  0  0  0  0  0  0  0  0  0  0  0
  1  2  1  0
  2  3  1  0
  3  4  2  0
  4  5  1  0
  5  6  1  0
  6  7  1  0
  7  8  1  0
  7  9  1  0
  9 10  2  0
 10 11  1  0
 10 12  1  0
 12 13  1  0
 12 14  1  0
 14 15  1  0
 14 16  1  0
  9 17  1  0
  6  2  1  0
 12  5  1  0
 14  7  1  0
M  END
>  <target>  (793) 
-5.46

$$$$

     RDKit          3D

  8  7  0  0  0  0  0  0  0  0999 V2000
   -2.2519    0.6188   -0.8514 C   0  0  0  0  0  0  0  0  0  0  0  0
   -1.1593   -0.2246   -0.1902 C   0  0  0  0  0  0  0  0  0  0  0  0
   -1.6358   -0.7040    1.1815 C   0  0  0  0  0  0  0  0  0  0  0  0
    0.1456    0.5839   -0.1075 C   0  0  0  0  0  0  0  0  0  0  0  0
    1.3354   -0.2194    0.4124 C   0  0  0  0  0  0  0  0  0  0  0  0
    2.5007    0.6148    0.3319 O   0  0  0  0  0  0  0  0  0  0  0  0
    3.6408    0.0143    0.7535 C   0  0  0  0  0  0  0  0  0  0  0  0
    3.7511   -1.1249    1.1766 O   0  0  0  0  0  0  0  0  0  0  0  0
  1  2  1  0
  2  3  1  0
  2  4  1  0
  4  5  1  0
  5  6  1  0
  6  7  1  0
  7  8  2  0
M  END
>  <target>  (794) 
-1.52

$$$$

     RDKit          3D

  9  9  0  0  0  0  0  0  0  0999 V2000
   -2.7039    0.0739    0.3065 C   0  0  0  0  0  0  0  0  0  0  0  0
   -1.5914   -0.8285   -0.1596 C   0  0  0  0  0  0  0  0  0  0  0  0
   -1.8264   -1.9610   -0.5770 O   0  0  0  0  0  0  0  0  0  0  0  0
   -0.1850   -0.3283   -0.1090 C   0  0  0  0  0  0  0  0  0  0  0  0
    0.1366    0.9525    0.3573 C   0  0  0  0  0  0  0  0  0  0  0  0
    1.4691    1.3745    0.3850 C   0  0  0  0  0  0  0  0  0  0  0  0
    2.4837    0.5234   -0.0510 C   0  0  0  0  0  0  0  0  0  0  0  0
    2.1710   -0.7522   -0.5163 C   0  0  0  0  0  0  0  0  0  0  0  0
    0.8415   -1.1774   -0.5455 C   0  0  0  0  0  0  0  0  0  0  0  0
  1  2  1  0
  2  3  2  0
  2  4  1  0
  4  5  2  0
  5  6  1  0
  6  7  2  0
  7  8  1  0
  8  9  2  0
  9  4  1  0
M  END
>  <target>  (795) 
-1.28

$$$$

     RDKit          3D

 20 23  0  0  0  0  0  0  0  0999 V2000
   -5.6995   -0.0918   -0.1719 C   0  0  0  0  0  0  0  0  0  0  0  0
   -5.2604    1.2213   -0.0480 C   0  0  0  0  0  0  0  0  0  0  0  0
   -3.8921    1.4910    0.0542 C   0  0  0  0  0  0  0  0  0  0  0  0
   -2.9434    0.4771    0.0359 C   0  0  0  0  0  0  0  0  0  0  0  0
   -1.6394    0.7912    0.1376 N   0  0  0  0  0  0  0  0  0  0  0  0
   -0.7105   -0.2062    0.1193 C   0  0  0  0  0  0  0  0  0  0  0  0
   -1.0861   -1.5424   -0.0026 C   0  0  0  0  0  0  0  0  0  0  0  0
   -2.4356   -1.8668   -0.1077 C   0  0  0  0  0  0  0  0  0  0  0  0
   -3.3948   -0.8514   -0.0899 C   0  0  0  0  0  0  0  0  0  0  0  0
   -4.7695   -1.1289   -0.1931 C   0  0  0  0  0  0  0  0  0  0  0  0
    0.7105    0.2062    0.2352 C   0  0  0  0  0  0  0  0  0  0  0  0
    1.0861    1.5424    0.3571 C   0  0  0  0  0  0  0  0  0  0  0  0
    2.4356    1.8668    0.4622 C   0  0  0  0  0  0  0  0  0  0  0  0
    3.3948    0.8514    0.4444 C   0  0  0  0  0  0  0  0  0  0  0  0
    4.7695    1.1289    0.5476 C   0  0  0  0  0  0  0  0  0  0  0  0
    5.6995    0.0918    0.5264 C   0  0  0  0  0  0  0  0  0  0  0  0
    5.2604   -1.2213    0.4024 C   0  0  0  0  0  0  0  0  0  0  0  0
    3.8921   -1.4910    0.3002 C   0  0  0  0  0  0  0  0  0  0  0  0
    2.9434   -0.4771    0.3186 C   0  0  0  0  0  0  0  0  0  0  0  0
    1.6394   -0.7912    0.2169 N   0  0  0  0  0  0  0  0  0  0  0  0
  1  2  2  0
  2  3  1  0
  3  4  2  0
  4  5  1  0
  5  6  2  0
  6  7  1  0
  7  8  2  0
  8  9  1  0
  9 10  2  0
  6 11  1  0
 11 12  2  0
 12 13  1  0
 13 14  2  0
 14 15  1  0
 15 16  2  0
 16 17  1  0
 17 18  2  0
 18 19  1  0
 19 20  2  0
  9  4  1  0
 10  1  1  0
 19 14  1  0
 20 11  1  0
M  END
>  <target>  (796) 
-5.4

$$$$

     RDKit          3D

 11 10  0  0  0  0  0  0  0  0999 V2000
    2.3252    2.9412    0.4262 C   0  0  0  0  0  0  0  0  0  0  0  0
    1.8738    1.7326   -0.3672 C   0  0  0  0  0  0  0  0  0  0  0  0
    0.6018    1.3278    0.1062 O   0  0  0  0  0  0  0  0  0  0  0  0
   -0.0324    0.0135   -0.5741 P   0  0  0  0  0  0  0  0  0  0  0  0
   -0.1165    0.0487   -2.0674 O   0  0  0  0  0  0  0  0  0  0  0  0
    0.8582   -1.1828    0.0326 O   0  0  0  0  0  0  0  0  0  0  0  0
    0.5278   -2.4933   -0.3909 C   0  0  0  0  0  0  0  0  0  0  0  0
    1.4295   -3.4769    0.3255 C   0  0  0  0  0  0  0  0  0  0  0  0
   -1.4417   -0.1527    0.1865 O   0  0  0  0  0  0  0  0  0  0  0  0
   -2.4526    0.7820   -0.1457 C   0  0  0  0  0  0  0  0  0  0  0  0
   -3.6726    0.5014    0.7067 C   0  0  0  0  0  0  0  0  0  0  0  0
  1  2  1  0
  2  3  1  0
  3  4  1  0
  4  5  2  0
  4  6  1  0
  6  7  1  0
  7  8  1  0
  4  9  1  0
  9 10  1  0
 10 11  1  0
M  END
>  <target>  (797) 
0.43

$$$$

     RDKit          3D

 11 12  0  0  0  0  0  0  0  0999 V2000
    2.2007    0.9519   -0.6983 C   0  0  0  0  0  0  0  0  0  0  0  0
    1.2367   -0.0307   -0.0275 C   0  0  0  0  0  0  0  0  0  0  0  0
    2.0114   -1.2187    0.5391 C   0  0  0  0  0  0  0  0  0  0  0  0
    0.2925    0.6759    1.0022 C   0  0  0  0  0  0  0  0  0  0  0  0
   -0.5919   -0.3335    1.7692 C   0  0  0  0  0  0  0  0  0  0  0  0
   -1.5551   -0.8598    0.6857 C   0  0  0  0  0  0  0  0  0  0  0  0
   -1.1999    0.0061   -0.5356 C   0  0  0  0  0  0  0  0  0  0  0  0
   -2.2576    0.1012   -1.6051 C   0  0  0  0  0  0  0  0  0  0  0  0
   -0.7756    1.3285    0.1088 C   0  0  0  0  0  0  0  0  0  0  0  0
    0.1644   -0.4857   -1.0155 C   0  0  0  0  0  0  0  0  0  0  0  0
    0.3660   -1.1588   -2.0154 O   0  0  0  0  0  0  0  0  0  0  0  0
  1  2  1  0
  2  3  1  0
  2  4  1  0
  4  5  1  0
  5  6  1  0
  6  7  1  0
  7  8  1  0
  7  9  1  0
  7 10  1  0
 10 11  2  0
  9  4  1  0
 10  2  1  0
M  END
>  <target>  (798) 
-1.85

$$$$

     RDKit          3D

 12 13  0  0  0  0  0  0  0  0999 V2000
   -3.1428    0.9211   -0.1775 C   0  0  0  0  0  0  0  0  0  0  0  0
   -2.6955   -0.2236    0.5441 O   0  0  0  0  0  0  0  0  0  0  0  0
   -1.3251   -0.3734    0.5231 C   0  0  0  0  0  0  0  0  0  0  0  0
   -0.7937   -1.4570    1.1968 C   0  0  0  0  0  0  0  0  0  0  0  0
    0.5347   -1.6919    1.2361 N   0  0  0  0  0  0  0  0  0  0  0  0
    1.3004   -0.7895    0.5687 C   0  0  0  0  0  0  0  0  0  0  0  0
    2.6725   -0.8816    0.5093 C   0  0  0  0  0  0  0  0  0  0  0  0
    3.4810   -0.0156   -0.1375 N   0  0  0  0  0  0  0  0  0  0  0  0
    2.8547    0.9914   -0.7519 C   0  0  0  0  0  0  0  0  0  0  0  0
    1.5336    1.1957   -0.7715 N   0  0  0  0  0  0  0  0  0  0  0  0
    0.7709    0.3178   -0.1208 C   0  0  0  0  0  0  0  0  0  0  0  0
   -0.5512    0.5159   -0.1362 N   0  0  0  0  0  0  0  0  0  0  0  0
  1  2  1  0
  2  3  1  0
  3  4  2  0
  4  5  1  0
  5  6  2  0
  6  7  1  0
  7  8  2  0
  8  9  1  0
  9 10  2  0
 10 11  1  0
 11 12  2  0
 11  6  1  0
 12  3  1  0
M  END
>  <target>  (799) 
-0.91

$$$$

     RDKit          3D

 16 18  0  0  0  0  0  0  0  0999 V2000
    0.9958    0.7197    3.0144 Cl  0  0  0  0  0  0  0  0  0  0  0  0
    1.0402    0.3668    1.3586 C   0  0  0  0  0  0  0  0  0  0  0  0
    1.3077    1.2024    0.3480 C   0  0  0  0  0  0  0  0  0  0  0  0
    1.6637    2.8557    0.4287 Cl  0  0  0  0  0  0  0  0  0  0  0  0
    1.1748    0.4109   -0.9393 C   0  0  0  0  0  0  0  0  0  0  0  0
    1.9538    1.0887   -2.3595 Cl  0  0  0  0  0  0  0  0  0  0  0  0
   -0.3406    0.0757   -1.1556 C   0  0  0  0  0  0  0  0  0  0  0  0
   -1.3480    1.1637   -0.9579 C   0  0  0  0  0  0  0  0  0  0  0  0
   -2.1524    0.9232    0.0830 C   0  0  0  0  0  0  0  0  0  0  0  0
   -1.8506   -0.3626    0.7834 C   0  0  0  0  0  0  0  0  0  0  0  0
   -0.6458   -0.9203    0.0173 C   0  0  0  0  0  0  0  0  0  0  0  0
    0.7305   -0.9910    0.7554 C   0  0  0  0  0  0  0  0  0  0  0  0
    0.8666   -2.3707    1.8327 Cl  0  0  0  0  0  0  0  0  0  0  0  0
    1.7349   -0.9618   -0.4459 C   0  0  0  0  0  0  0  0  0  0  0  0
    1.5536   -2.3153   -1.6204 Cl  0  0  0  0  0  0  0  0  0  0  0  0
    3.4799   -0.9438    0.0261 Cl  0  0  0  0  0  0  0  0  0  0  0  0
  1  2  1  0
  2  3  2  0
  3  4  1  0
  3  5  1  0
  5  6  1  0
  5  7  1  0
  7  8  1  0
  8  9  2  0
  9 10  1  0
 10 11  1  0
 11 12  1  0
 12 13  1  0
 12 14  1  0
 14 15  1  0
 14 16  1  0
 11  7  1  0
 12  2  1  0
 14  5  1  0
M  END
>  <target>  (800) 
-5.64

$$$$

     RDKit          3D

  6  5  0  0  0  0  0  0  0  0999 V2000
   -1.1290   -0.7759    0.3073 C   0  0  0  0  0  0  0  0  0  0  0  0
    0.0471   -0.1212   -0.4022 C   0  0  0  0  0  0  0  0  0  0  0  0
    0.1008    1.3860   -0.2001 C   0  0  0  0  0  0  0  0  0  0  0  0
    1.3273   -0.7256    0.1253 N   0  0  0  0  0  0  0  0  0  0  0  0
    1.5796   -0.5865    1.3297 O   0  0  0  0  0  0  0  0  0  0  0  0
    2.0388   -1.3224   -0.6929 O   0  0  0  0  0  0  0  0  0  0  0  0
  1  2  1  0
  2  3  1  0
  2  4  1  0
  4  5  1  0
  4  6  2  0
M  CHG  2   4   1   5  -1
M  END
>  <target>  (801) 
-0.62

$$$$

     RDKit          3D

 13 15  0  0  0  0  0  0  0  0999 V2000
   -3.4435   -0.0219    0.2557 C   0  0  0  0  0  0  0  0  0  0  0  0
   -2.9772    1.2869    0.1573 C   0  0  0  0  0  0  0  0  0  0  0  0
   -1.6039    1.5525    0.1063 C   0  0  0  0  0  0  0  0  0  0  0  0
   -0.6874    0.4816    0.1554 C   0  0  0  0  0  0  0  0  0  0  0  0
   -1.1862   -0.8167    0.2540 C   0  0  0  0  0  0  0  0  0  0  0  0
   -2.5561   -1.1011    0.3061 C   0  0  0  0  0  0  0  0  0  0  0  0
   -0.1027   -1.6628    0.2840 N   0  0  0  0  0  0  0  0  0  0  0  0
    1.0765   -0.9596    0.2087 C   0  0  0  0  0  0  0  0  0  0  0  0
    2.4008   -1.4141    0.2069 C   0  0  0  0  0  0  0  0  0  0  0  0
    3.4140   -0.4549    0.1185 C   0  0  0  0  0  0  0  0  0  0  0  0
    3.1125    0.9024    0.0354 C   0  0  0  0  0  0  0  0  0  0  0  0
    1.7825    1.3387    0.0386 C   0  0  0  0  0  0  0  0  0  0  0  0
    0.7413    0.3914    0.1268 C   0  0  0  0  0  0  0  0  0  0  0  0
  1  2  2  0
  2  3  1  0
  3  4  2  0
  4  5  1  0
  5  6  2  0
  5  7  1  0
  7  8  1  0
  8  9  2  0
  9 10  1  0
 10 11  2  0
 11 12  1  0
 12 13  2  0
  6  1  1  0
 13  4  1  0
 13  8  1  0
M  END
>  <target>  (802) 
-5.27

$$$$

     RDKit          3D

  8  7  0  0  0  0  0  0  0  0999 V2000
    2.6066    0.6543    0.2654 O   0  0  0  0  0  0  0  0  0  0  0  0
    1.3604   -0.0342    0.4430 C   0  0  0  0  0  0  0  0  0  0  0  0
    0.3095    0.6704   -0.4202 C   0  0  0  0  0  0  0  0  0  0  0  0
    0.3370    2.0752   -0.0828 O   0  0  0  0  0  0  0  0  0  0  0  0
   -1.1354    0.1857   -0.2273 C   0  0  0  0  0  0  0  0  0  0  0  0
   -1.5605    0.4775    1.1173 O   0  0  0  0  0  0  0  0  0  0  0  0
   -1.3440   -1.3056   -0.4843 C   0  0  0  0  0  0  0  0  0  0  0  0
   -0.7874   -2.0748    0.5805 O   0  0  0  0  0  0  0  0  0  0  0  0
  1  2  1  0
  2  3  1  0
  3  4  1  0
  3  5  1  0
  5  6  1  0
  5  7  1  0
  7  8  1  0
M  END
>  <target>  (803) 
0.7

$$$$

     RDKit          3D

 13 13  0  0  0  0  0  0  0  0999 V2000
    4.8786    0.4538    0.4444 C   0  0  0  0  0  0  0  0  0  0  0  0
    3.4008    0.7844    0.3385 C   0  0  0  0  0  0  0  0  0  0  0  0
    2.5477   -0.4700    0.1967 C   0  0  0  0  0  0  0  0  0  0  0  0
    1.1756   -0.0642    0.1039 O   0  0  0  0  0  0  0  0  0  0  0  0
    0.2992   -1.0914   -0.0255 C   0  0  0  0  0  0  0  0  0  0  0  0
    0.5900   -2.2765   -0.0689 O   0  0  0  0  0  0  0  0  0  0  0  0
   -1.0965   -0.5825   -0.1139 C   0  0  0  0  0  0  0  0  0  0  0  0
   -2.1342   -1.5127   -0.2446 C   0  0  0  0  0  0  0  0  0  0  0  0
   -3.4622   -1.0814   -0.3291 C   0  0  0  0  0  0  0  0  0  0  0  0
   -3.7720    0.2805   -0.3280 C   0  0  0  0  0  0  0  0  0  0  0  0
   -5.1055    0.6996   -0.2913 N   0  0  0  0  0  0  0  0  0  0  0  0
   -2.7393    1.2023   -0.1383 C   0  0  0  0  0  0  0  0  0  0  0  0
   -1.4073    0.7807   -0.0522 C   0  0  0  0  0  0  0  0  0  0  0  0
  1  2  1  0
  2  3  1  0
  3  4  1  0
  4  5  1  0
  5  6  2  0
  5  7  1  0
  7  8  2  0
  8  9  1  0
  9 10  2  0
 10 11  1  0
 10 12  1  0
 12 13  2  0
 13  7  1  0
M  END
>  <target>  (804) 
-2.452

$$$$

     RDKit          3D

 14 13  0  0  0  0  0  0  0  0999 V2000
    3.4757    1.5331    0.3895 C   0  0  0  0  0  0  0  0  0  0  0  0
    2.5146    0.5577   -0.0522 N   0  0  0  0  0  0  0  0  0  0  0  0
    2.8968   -0.6256   -0.6184 C   0  0  0  0  0  0  0  0  0  0  0  0
    4.0593   -0.9262   -0.8675 O   0  0  0  0  0  0  0  0  0  0  0  0
    1.8118   -1.6014   -0.9076 C   0  0  0  0  0  0  0  0  0  0  0  0
    0.4807   -1.4300   -0.8288 C   0  0  0  0  0  0  0  0  0  0  0  0
   -0.4695   -2.5405   -1.1735 C   0  0  0  0  0  0  0  0  0  0  0  0
   -0.0711   -0.2206   -0.4399 O   0  0  0  0  0  0  0  0  0  0  0  0
   -1.6360    0.1370   -0.2525 P   0  0  0  0  0  0  0  0  0  0  0  0
   -2.5190   -0.1203   -1.4333 O   0  0  0  0  0  0  0  0  0  0  0  0
   -1.5897    1.6775    0.2249 O   0  0  0  0  0  0  0  0  0  0  0  0
   -1.3123    2.6364   -0.7758 C   0  0  0  0  0  0  0  0  0  0  0  0
   -2.0444   -0.6424    1.0972 O   0  0  0  0  0  0  0  0  0  0  0  0
   -3.3922   -0.5303    1.5051 C   0  0  0  0  0  0  0  0  0  0  0  0
  1  2  1  0
  2  3  1  0
  3  4  2  0
  3  5  1  0
  5  6  2  3
  6  7  1  0
  6  8  1  0
  8  9  1  0
  9 10  2  0
  9 11  1  0
 11 12  1  0
  9 13  1  0
 13 14  1  0
M  END
>  <target>  (805) 
0.6509999999999999

$$$$

     RDKit          3D

  7  7  0  0  0  0  0  0  0  0999 V2000
    1.7453   -1.6115   -0.7765 O   0  0  0  0  0  0  0  0  0  0  0  0
    0.9479   -0.7720   -0.3938 C   0  0  0  0  0  0  0  0  0  0  0  0
   -0.5173   -0.9994   -0.1685 C   0  0  0  0  0  0  0  0  0  0  0  0
   -1.0403    0.3515    0.2984 C   0  0  0  0  0  0  0  0  0  0  0  0
    0.1701    1.2371    0.3006 C   0  0  0  0  0  0  0  0  0  0  0  0
    0.1863    2.4150    0.6154 O   0  0  0  0  0  0  0  0  0  0  0  0
    1.2440    0.5175   -0.1037 N   0  0  0  0  0  0  0  0  0  0  0  0
  1  2  2  0
  2  3  1  0
  3  4  1  0
  4  5  1  0
  5  6  2  0
  5  7  1  0
  7  2  1  0
M  END
>  <target>  (806) 
0.3

$$$$

     RDKit          3D

  7  6  0  0  0  0  0  0  0  0999 V2000
    2.2218   -1.1892    0.2892 C   0  0  0  0  0  0  0  0  0  0  0  0
    1.6111    0.1864    0.5151 C   0  0  0  0  0  0  0  0  0  0  0  0
    0.4028    0.4977   -0.3965 C   0  0  0  0  0  0  0  0  0  0  0  0
   -0.0397    1.9467   -0.1480 C   0  0  0  0  0  0  0  0  0  0  0  0
   -0.7600   -0.5288   -0.2755 C   0  0  0  0  0  0  0  0  0  0  0  0
   -1.3645   -0.6204    1.1281 C   0  0  0  0  0  0  0  0  0  0  0  0
   -1.8723   -0.2572   -1.2957 C   0  0  0  0  0  0  0  0  0  0  0  0
  1  2  1  0
  2  3  1  0
  3  4  1  0
  3  5  1  0
  5  6  1  0
  5  7  1  0
M  END
>  <target>  (807) 
-4.28

$$$$

     RDKit          3D

 21 21  0  0  0  0  0  0  0  0999 V2000
    5.0981    1.1482    1.9695 C   0  0  0  0  0  0  0  0  0  0  0  0
    4.2572    1.4425    0.7376 C   0  0  0  0  0  0  0  0  0  0  0  0
    3.0949    0.4585    0.6048 C   0  0  0  0  0  0  0  0  0  0  0  0
    2.2516    0.7617   -0.6366 C   0  0  0  0  0  0  0  0  0  0  0  0
    1.1039   -0.1979   -0.7835 C   0  0  0  0  0  0  0  0  0  0  0  0
    1.1577   -1.3478   -1.5537 C   0  0  0  0  0  0  0  0  0  0  0  0
    2.3732   -1.7228   -2.3506 C   0  0  0  0  0  0  0  0  0  0  0  0
    0.1185   -2.2085   -1.6417 N   0  0  0  0  0  0  0  0  0  0  0  0
   -0.9896   -1.9399   -0.9438 C   0  0  0  0  0  0  0  0  0  0  0  0
   -2.0179   -2.8648   -1.0792 N   0  0  0  0  0  0  0  0  0  0  0  0
   -3.3373   -2.2649   -1.1590 C   0  0  0  0  0  0  0  0  0  0  0  0
   -4.3678   -3.3503   -1.4281 C   0  0  0  0  0  0  0  0  0  0  0  0
   -1.1349   -0.8712   -0.1605 N   0  0  0  0  0  0  0  0  0  0  0  0
   -0.0966   -0.0197   -0.1186 C   0  0  0  0  0  0  0  0  0  0  0  0
   -0.2419    1.0285    0.7473 O   0  0  0  0  0  0  0  0  0  0  0  0
   -1.0648    2.3307    0.2212 S   0  0  0  0  0  0  0  0  0  0  0  0
   -0.2600    3.4931    0.5448 O   0  0  0  0  0  0  0  0  0  0  0  0
   -1.5184    2.1324   -1.1405 O   0  0  0  0  0  0  0  0  0  0  0  0
   -2.4454    2.3880    1.2274 N   0  0  0  0  0  0  0  0  0  0  0  0
   -3.3934    1.2731    1.0410 C   0  0  0  0  0  0  0  0  0  0  0  0
   -2.1607    2.6579    2.6486 C   0  0  0  0  0  0  0  0  0  0  0  0
  1  2  1  0
  2  3  1  0
  3  4  1  0
  4  5  1  0
  5  6  2  0
  6  7  1  0
  6  8  1  0
  8  9  2  0
  9 10  1  0
 10 11  1  0
 11 12  1  0
  9 13  1  0
 13 14  2  0
 14 15  1  0
 15 16  1  0
 16 17  2  0
 16 18  2  0
 16 19  1  0
 19 20  1  0
 19 21  1  0
 14  5  1  0
M  END
>  <target>  (808) 
-4.16

$$$$

     RDKit          3D

 19 21  0  0  0  0  0  0  0  0999 V2000
    2.0167    2.5586    1.3921 C   0  0  0  0  0  0  0  0  0  0  0  0
    1.1166    2.3162    0.1805 C   0  0  0  0  0  0  0  0  0  0  0  0
    0.4637    0.9953    0.2514 N   0  0  0  0  0  0  0  0  0  0  0  0
   -0.7455    0.9265   -0.4928 C   0  0  0  0  0  0  0  0  0  0  0  0
   -1.0049    1.9458   -1.3647 N   0  0  0  0  0  0  0  0  0  0  0  0
   -2.1168    1.9080   -2.1201 C   0  0  0  0  0  0  0  0  0  0  0  0
   -3.0327    0.8874   -2.0591 C   0  0  0  0  0  0  0  0  0  0  0  0
   -2.7954   -0.1454   -1.1584 C   0  0  0  0  0  0  0  0  0  0  0  0
   -1.6464   -0.1627   -0.3405 C   0  0  0  0  0  0  0  0  0  0  0  0
   -1.5021   -1.2147    0.6586 N   0  0  0  0  0  0  0  0  0  0  0  0
   -2.7387   -1.9064    1.0619 C   0  0  0  0  0  0  0  0  0  0  0  0
   -0.2880   -1.5044    1.3151 C   0  0  0  0  0  0  0  0  0  0  0  0
   -0.1753   -2.0996    2.9027 S   0  0  0  0  0  0  0  0  0  0  0  0
    0.9640   -1.3497    0.5337 C   0  0  0  0  0  0  0  0  0  0  0  0
    1.7986   -2.4542    0.3099 C   0  0  0  0  0  0  0  0  0  0  0  0
    3.0168   -2.2695   -0.3290 C   0  0  0  0  0  0  0  0  0  0  0  0
    3.3562   -0.9859   -0.7084 C   0  0  0  0  0  0  0  0  0  0  0  0
    2.5642    0.0910   -0.5092 N   0  0  0  0  0  0  0  0  0  0  0  0
    1.3591   -0.0893    0.0968 C   0  0  0  0  0  0  0  0  0  0  0  0
  1  2  1  0
  2  3  1  0
  3  4  1  0
  4  5  2  0
  5  6  1  0
  6  7  2  0
  7  8  1  0
  8  9  2  0
  9 10  1  0
 10 11  1  0
 10 12  1  0
 12 13  2  0
 12 14  1  0
 14 15  2  0
 15 16  1  0
 16 17  2  0
 17 18  1  0
 18 19  2  0
  9  4  1  0
 19  3  1  0
 19 14  1  0
M  END
>  <target>  (809) 
-4.6339999999999995

$$$$

     RDKit          3D

 18 20  0  0  0  0  0  0  0  0999 V2000
    1.2052    1.3657   -0.9574 O   0  0  0  0  0  0  0  0  0  0  0  0
   -0.0033    1.6190   -0.3575 C   0  0  0  0  0  0  0  0  0  0  0  0
   -0.1872    2.9382    0.0818 C   0  0  0  0  0  0  0  0  0  0  0  0
   -1.4027    3.3318    0.6286 C   0  0  0  0  0  0  0  0  0  0  0  0
   -2.4387    2.4111    0.7167 C   0  0  0  0  0  0  0  0  0  0  0  0
   -2.2572    1.1007    0.2561 C   0  0  0  0  0  0  0  0  0  0  0  0
   -1.0328    0.6694   -0.2869 C   0  0  0  0  0  0  0  0  0  0  0  0
   -0.8862   -0.6668   -0.7881 N   0  0  0  0  0  0  0  0  0  0  0  0
   -2.0796   -1.3820   -1.2581 C   0  0  0  0  0  0  0  0  0  0  0  0
   -2.6218   -2.3652   -0.2274 C   0  0  0  0  0  0  0  0  0  0  0  0
    0.3172   -1.3907   -0.8555 C   0  0  0  0  0  0  0  0  0  0  0  0
    0.3810   -2.5161   -1.3598 O   0  0  0  0  0  0  0  0  0  0  0  0
    1.5528   -0.8947   -0.2151 C   0  0  0  0  0  0  0  0  0  0  0  0
    2.3898   -1.8201    0.4285 C   0  0  0  0  0  0  0  0  0  0  0  0
    3.5968   -1.4077    0.9977 C   0  0  0  0  0  0  0  0  0  0  0  0
    3.9849   -0.0721    0.9109 C   0  0  0  0  0  0  0  0  0  0  0  0
    3.1654    0.8477    0.2573 C   0  0  0  0  0  0  0  0  0  0  0  0
    1.9479    0.4332   -0.2912 C   0  0  0  0  0  0  0  0  0  0  0  0
  1  2  1  0
  2  3  2  0
  3  4  1  0
  4  5  2  0
  5  6  1  0
  6  7  2  0
  7  8  1  0
  8  9  1  0
  9 10  1  0
  8 11  1  0
 11 12  2  0
 11 13  1  0
 13 14  2  0
 14 15  1  0
 15 16  2  0
 16 17  1  0
 17 18  2  0
  7  2  1  0
 18  1  1  0
 18 13  1  0
M  END
>  <target>  (810) 
-3.68

$$$$

     RDKit          3D

  6  6  0  0  0  0  0  0  0  0999 V2000
    0.1622   -1.0954   -0.5624 C   0  0  0  0  0  0  0  0  0  0  0  0
    1.2684   -0.4506    0.2659 C   0  0  0  0  0  0  0  0  0  0  0  0
    1.0682    1.0569    0.3527 C   0  0  0  0  0  0  0  0  0  0  0  0
   -0.2253    1.3666    0.8715 O   0  0  0  0  0  0  0  0  0  0  0  0
   -1.2726    0.8726    0.0366 C   0  0  0  0  0  0  0  0  0  0  0  0
   -1.2088   -0.6456   -0.0686 C   0  0  0  0  0  0  0  0  0  0  0  0
  1  2  1  0
  2  3  1  0
  3  4  1  0
  4  5  1  0
  5  6  1  0
  6  1  1  0
M  END
>  <target>  (811) 
-0.03

$$$$

     RDKit          3D

  7  6  0  0  0  0  0  0  0  0999 V2000
   -3.0901    0.2575   -0.2618 C   0  0  0  0  0  0  0  0  0  0  0  0
   -1.7935   -0.4942   -0.0065 C   0  0  0  0  0  0  0  0  0  0  0  0
   -0.5798    0.4278   -0.1209 C   0  0  0  0  0  0  0  0  0  0  0  0
    0.7227   -0.3319    0.1366 C   0  0  0  0  0  0  0  0  0  0  0  0
    1.9369    0.5897    0.0223 C   0  0  0  0  0  0  0  0  0  0  0  0
    3.1857   -0.1457    0.2707 C   0  0  0  0  0  0  0  0  0  0  0  0
    4.2074   -0.7434    0.4730 C   0  0  0  0  0  0  0  0  0  0  0  0
  1  2  1  0
  2  3  1  0
  3  4  1  0
  4  5  1  0
  5  6  1  0
  6  7  3  0
M  END
>  <target>  (812) 
-3.01

$$$$

     RDKit          3D

 18 19  0  0  0  0  0  0  0  0999 V2000
   -2.0359   -3.3881    0.0367 C   0  0  0  0  0  0  0  0  0  0  0  0
   -2.8058   -2.3776   -0.3771 C   0  0  0  0  0  0  0  0  0  0  0  0
   -2.3386   -1.0083   -0.2287 C   0  0  0  0  0  0  0  0  0  0  0  0
   -3.1025    0.0745   -0.6566 C   0  0  0  0  0  0  0  0  0  0  0  0
   -2.6173    1.3789   -0.5090 C   0  0  0  0  0  0  0  0  0  0  0  0
   -1.3631    1.6173    0.0692 C   0  0  0  0  0  0  0  0  0  0  0  0
   -0.8140    2.8622    0.2366 O   0  0  0  0  0  0  0  0  0  0  0  0
   -1.5540    3.9809   -0.2342 C   0  0  0  0  0  0  0  0  0  0  0  0
   -0.5838    0.5332    0.5194 C   0  0  0  0  0  0  0  0  0  0  0  0
    0.7868    0.7466    1.1282 C   0  0  0  0  0  0  0  0  0  0  0  0
    1.8775    0.7345    0.0890 C   0  0  0  0  0  0  0  0  0  0  0  0
    2.8699   -0.1630   -0.0759 C   0  0  0  0  0  0  0  0  0  0  0  0
    3.0892   -1.3867    0.7708 C   0  0  0  0  0  0  0  0  0  0  0  0
    3.8733    0.0031   -1.1874 C   0  0  0  0  0  0  0  0  0  0  0  0
   -1.0934   -0.7666    0.3514 C   0  0  0  0  0  0  0  0  0  0  0  0
   -0.3031   -1.8554    0.7900 O   0  0  0  0  0  0  0  0  0  0  0  0
   -0.7156   -3.1714    0.6503 C   0  0  0  0  0  0  0  0  0  0  0  0
   -0.0318   -4.1194    1.0186 O   0  0  0  0  0  0  0  0  0  0  0  0
  1  2  2  0
  2  3  1  0
  3  4  2  0
  4  5  1  0
  5  6  2  0
  6  7  1  0
  7  8  1  0
  6  9  1  0
  9 10  1  0
 10 11  1  0
 11 12  2  3
 12 13  1  0
 12 14  1  0
  9 15  2  0
 15 16  1  0
 16 17  1  0
 17 18  2  0
 17  1  1  0
 15  3  1  0
M  END
>  <target>  (813) 
-4.314

$$$$

     RDKit          3D

 21 25  0  0  0  0  0  0  0  0999 V2000
    2.4773    1.4414    0.2359 C   0  0  0  0  0  0  0  0  0  0  0  0
    3.8698    1.3731    0.3598 C   0  0  0  0  0  0  0  0  0  0  0  0
    4.5103    0.1399    0.4208 C   0  0  0  0  0  0  0  0  0  0  0  0
    5.9976    0.0560    0.5873 C   0  0  0  0  0  0  0  0  0  0  0  0
    3.7316   -1.0197    0.3818 C   0  0  0  0  0  0  0  0  0  0  0  0
    2.3314   -0.9631    0.2574 C   0  0  0  0  0  0  0  0  0  0  0  0
    1.6610    0.2841    0.1780 C   0  0  0  0  0  0  0  0  0  0  0  0
    0.2257    0.3093    0.0497 C   0  0  0  0  0  0  0  0  0  0  0  0
   -0.5391    1.5163   -0.0392 C   0  0  0  0  0  0  0  0  0  0  0  0
   -1.9422    1.5145   -0.1639 C   0  0  0  0  0  0  0  0  0  0  0  0
   -2.7962    2.6302   -0.2592 C   0  0  0  0  0  0  0  0  0  0  0  0
   -4.1874    2.4480   -0.3797 C   0  0  0  0  0  0  0  0  0  0  0  0
   -4.7474    1.1618   -0.4071 C   0  0  0  0  0  0  0  0  0  0  0  0
   -3.9029    0.0681   -0.3131 C   0  0  0  0  0  0  0  0  0  0  0  0
   -4.2363   -1.3919   -0.3175 C   0  0  0  0  0  0  0  0  0  0  0  0
   -2.8510   -2.0745   -0.1827 C   0  0  0  0  0  0  0  0  0  0  0  0
   -1.8798   -0.9243   -0.1162 C   0  0  0  0  0  0  0  0  0  0  0  0
   -2.5508    0.2674   -0.1964 C   0  0  0  0  0  0  0  0  0  0  0  0
   -0.4855   -0.9311    0.0078 C   0  0  0  0  0  0  0  0  0  0  0  0
    0.2159   -2.1389    0.0911 C   0  0  0  0  0  0  0  0  0  0  0  0
    1.6017   -2.1531    0.2140 C   0  0  0  0  0  0  0  0  0  0  0  0
  1  2  2  0
  2  3  1  0
  3  4  1  0
  3  5  2  0
  5  6  1  0
  6  7  2  0
  7  8  1  0
  8  9  2  0
  9 10  1  0
 10 11  2  0
 11 12  1  0
 12 13  2  0
 13 14  1  0
 14 15  1  0
 15 16  1  0
 16 17  1  0
 17 18  1  0
 17 19  2  0
 19 20  1  0
 20 21  2  0
  7  1  1  0
 21  6  1  0
 19  8  1  0
 18 10  1  0
 18 14  2  0
M  END
>  <target>  (814) 
-7.92

$$$$

     RDKit          3D

 11 11  0  0  0  0  0  0  0  0999 V2000
    3.6483    0.0966    1.2510 C   0  0  0  0  0  0  0  0  0  0  0  0
    2.7805   -0.1028    0.0238 C   0  0  0  0  0  0  0  0  0  0  0  0
    1.4090   -0.0105    0.4274 O   0  0  0  0  0  0  0  0  0  0  0  0
    0.5200   -0.1722   -0.5846 C   0  0  0  0  0  0  0  0  0  0  0  0
    0.8014   -0.3801   -1.7545 O   0  0  0  0  0  0  0  0  0  0  0  0
   -0.8761   -0.0620   -0.0804 C   0  0  0  0  0  0  0  0  0  0  0  0
   -1.9246   -0.2050   -1.0000 C   0  0  0  0  0  0  0  0  0  0  0  0
   -3.2517   -0.1099   -0.5763 C   0  0  0  0  0  0  0  0  0  0  0  0
   -3.5389    0.1283    0.7670 C   0  0  0  0  0  0  0  0  0  0  0  0
   -2.5021    0.2718    1.6886 C   0  0  0  0  0  0  0  0  0  0  0  0
   -1.1728    0.1773    1.2686 C   0  0  0  0  0  0  0  0  0  0  0  0
  1  2  1  0
  2  3  1  0
  3  4  1  0
  4  5  2  0
  4  6  1  0
  6  7  2  0
  7  8  1  0
  8  9  2  0
  9 10  1  0
 10 11  2  0
 11  6  1  0
M  END
>  <target>  (815) 
-2.32

$$$$

     RDKit          3D

  5  4  0  0  0  0  0  0  0  0999 V2000
    1.9307   -0.1491    1.5117 Cl  0  0  0  0  0  0  0  0  0  0  0  0
    1.3322   -0.6143   -0.0992 C   0  0  0  0  0  0  0  0  0  0  0  0
   -0.0962   -0.1336   -0.3903 C   0  0  0  0  0  0  0  0  0  0  0  0
   -1.1231   -0.7459    0.5636 C   0  0  0  0  0  0  0  0  0  0  0  0
   -0.2086    1.3918   -0.3936 C   0  0  0  0  0  0  0  0  0  0  0  0
  1  2  1  0
  2  3  1  0
  3  4  1  0
  3  5  1  0
M  END
>  <target>  (816) 
-2.0

$$$$

     RDKit          3D

 22 25  0  0  0  0  0  0  0  0999 V2000
   -2.2321   -0.7837    1.8427 C   0  0  0  0  0  0  0  0  0  0  0  0
   -2.1035   -0.0005    0.5209 C   0  0  0  0  0  0  0  0  0  0  0  0
   -1.3903    1.3516    0.7871 C   0  0  0  0  0  0  0  0  0  0  0  0
    0.1118    1.2246    1.0552 C   0  0  0  0  0  0  0  0  0  0  0  0
    0.8389    0.4944   -0.0895 C   0  0  0  0  0  0  0  0  0  0  0  0
    0.1872   -0.8945   -0.2901 C   0  0  0  0  0  0  0  0  0  0  0  0
    0.9206   -1.6507   -1.4009 C   0  0  0  0  0  0  0  0  0  0  0  0
    2.3506   -1.9471   -0.9628 C   0  0  0  0  0  0  0  0  0  0  0  0
    3.0550   -0.7546   -0.3622 C   0  0  0  0  0  0  0  0  0  0  0  0
    4.4518   -0.8239   -0.2128 C   0  0  0  0  0  0  0  0  0  0  0  0
    5.1485    0.2425    0.3407 C   0  0  0  0  0  0  0  0  0  0  0  0
    6.5018    0.2064    0.4939 O   0  0  0  0  0  0  0  0  0  0  0  0
    4.4812    1.3846    0.7486 C   0  0  0  0  0  0  0  0  0  0  0  0
    3.0940    1.4595    0.6146 C   0  0  0  0  0  0  0  0  0  0  0  0
    2.3530    0.3868    0.0858 C   0  0  0  0  0  0  0  0  0  0  0  0
   -1.3295   -0.8227   -0.5406 C   0  0  0  0  0  0  0  0  0  0  0  0
   -1.7541   -0.2102   -1.8873 C   0  0  0  0  0  0  0  0  0  0  0  0
   -3.1123    0.4640   -1.6523 C   0  0  0  0  0  0  0  0  0  0  0  0
   -3.4787    0.1750   -0.1897 C   0  0  0  0  0  0  0  0  0  0  0  0
   -4.2008   -1.0597   -0.1673 O   0  0  0  0  0  0  0  0  0  0  0  0
   -4.3340    1.2232    0.3887 C   0  0  0  0  0  0  0  0  0  0  0  0
   -5.0413    2.0722    0.8603 C   0  0  0  0  0  0  0  0  0  0  0  0
  1  2  1  0
  2  3  1  0
  3  4  1  0
  4  5  1  0
  5  6  1  0
  6  7  1  0
  7  8  1  0
  8  9  1  0
  9 10  2  0
 10 11  1  0
 11 12  1  0
 11 13  2  0
 13 14  1  0
 14 15  2  0
  6 16  1  0
 16 17  1  0
 17 18  1  0
 18 19  1  0
 19 20  1  0
 19 21  1  0
 21 22  3  0
 15  5  1  0
 15  9  1  0
 16  2  1  0
 19  2  1  0
M  END
>  <target>  (817) 
-4.3

$$$$

     RDKit          3D

 15 14  0  0  0  0  0  0  0  0999 V2000
   -6.0129    1.2927    0.7473 C   0  0  0  0  0  0  0  0  0  0  0  0
   -5.8871    0.3715   -0.4559 C   0  0  0  0  0  0  0  0  0  0  0  0
   -5.4337   -1.0457   -0.0972 C   0  0  0  0  0  0  0  0  0  0  0  0
   -4.0742   -1.1530    0.6004 C   0  0  0  0  0  0  0  0  0  0  0  0
   -2.9160   -0.6046   -0.2355 C   0  0  0  0  0  0  0  0  0  0  0  0
   -1.5721   -0.8420    0.4571 C   0  0  0  0  0  0  0  0  0  0  0  0
   -0.4127   -0.2905   -0.3743 C   0  0  0  0  0  0  0  0  0  0  0  0
    0.9305   -0.5279    0.3178 C   0  0  0  0  0  0  0  0  0  0  0  0
    2.0899    0.0237   -0.5136 C   0  0  0  0  0  0  0  0  0  0  0  0
    3.4327   -0.2137    0.1782 C   0  0  0  0  0  0  0  0  0  0  0  0
    4.5910    0.3371   -0.6517 C   0  0  0  0  0  0  0  0  0  0  0  0
    5.9251    0.1096    0.0200 C   0  0  0  0  0  0  0  0  0  0  0  0
    6.0948   -0.4442    1.0965 O   0  0  0  0  0  0  0  0  0  0  0  0
    6.9179    0.6201   -0.7637 O   0  0  0  0  0  0  0  0  0  0  0  0
    8.2280    0.4574   -0.2189 C   0  0  0  0  0  0  0  0  0  0  0  0
  1  2  1  0
  2  3  1  0
  3  4  1  0
  4  5  1  0
  5  6  1  0
  6  7  1  0
  7  8  1  0
  8  9  1  0
  9 10  1  0
 10 11  1  0
 11 12  1  0
 12 13  2  0
 12 14  1  0
 14 15  1  0
M  END
>  <target>  (818) 
-4.69

$$$$

     RDKit          3D

  7  6  0  0  0  0  0  0  0  0999 V2000
    2.9916    0.0576    0.3328 C   0  0  0  0  0  0  0  0  0  0  0  0
    1.8691    0.0823   -0.6947 C   0  0  0  0  0  0  0  0  0  0  0  0
    0.8035    1.1455   -0.4292 C   0  0  0  0  0  0  0  0  0  0  0  0
   -0.0784    1.0023    1.1633 S   0  0  0  0  0  0  0  0  0  0  0  0
   -0.8423   -0.6487    1.0057 C   0  0  0  0  0  0  0  0  0  0  0  0
   -1.8113   -0.8218   -0.1636 C   0  0  0  0  0  0  0  0  0  0  0  0
   -3.0056    0.1209   -0.1256 C   0  0  0  0  0  0  0  0  0  0  0  0
  1  2  1  0
  2  3  1  0
  3  4  1  0
  4  5  1  0
  5  6  1  0
  6  7  1  0
M  END
>  <target>  (819) 
-2.58

$$$$

     RDKit          3D

 18 21  0  0  0  0  0  0  0  0999 V2000
   -4.8900    0.2451   -0.7540 C   0  0  0  0  0  0  0  0  0  0  0  0
   -4.8306    0.7582    0.5379 C   0  0  0  0  0  0  0  0  0  0  0  0
   -3.5977    0.8909    1.1787 C   0  0  0  0  0  0  0  0  0  0  0  0
   -2.4080    0.5118    0.5349 C   0  0  0  0  0  0  0  0  0  0  0  0
   -1.1596    0.6391    1.1663 C   0  0  0  0  0  0  0  0  0  0  0  0
    0.0301    0.2598    0.5218 C   0  0  0  0  0  0  0  0  0  0  0  0
    1.2785    0.3875    1.1541 C   0  0  0  0  0  0  0  0  0  0  0  0
    2.4683    0.0085    0.5105 C   0  0  0  0  0  0  0  0  0  0  0  0
    3.7166    0.1360    1.1422 C   0  0  0  0  0  0  0  0  0  0  0  0
    4.8900   -0.2451    0.4893 C   0  0  0  0  0  0  0  0  0  0  0  0
    4.8306   -0.7582   -0.8026 C   0  0  0  0  0  0  0  0  0  0  0  0
    3.5977   -0.8909   -1.4434 C   0  0  0  0  0  0  0  0  0  0  0  0
    2.4080   -0.5118   -0.7996 C   0  0  0  0  0  0  0  0  0  0  0  0
    1.1596   -0.6391   -1.4309 C   0  0  0  0  0  0  0  0  0  0  0  0
   -0.0301   -0.2598   -0.7864 C   0  0  0  0  0  0  0  0  0  0  0  0
   -1.2785   -0.3875   -1.4187 C   0  0  0  0  0  0  0  0  0  0  0  0
   -2.4683   -0.0085   -0.7752 C   0  0  0  0  0  0  0  0  0  0  0  0
   -3.7166   -0.1360   -1.4068 C   0  0  0  0  0  0  0  0  0  0  0  0
  1  2  2  0
  2  3  1  0
  3  4  2  0
  4  5  1  0
  5  6  2  0
  6  7  1  0
  7  8  2  0
  8  9  1  0
  9 10  2  0
 10 11  1  0
 11 12  2  0
 12 13  1  0
 13 14  2  0
 14 15  1  0
 15 16  2  0
 16 17  1  0
 17 18  2  0
 18  1  1  0
 17  4  1  0
 15  6  1  0
 13  8  1  0
M  END
>  <target>  (820) 
-8.6

$$$$

     RDKit          3D

  6  5  0  0  0  0  0  0  0  0999 V2000
   -2.5664    0.2301    0.2190 C   0  0  0  0  0  0  0  0  0  0  0  0
   -1.2851   -0.1896   -0.4835 C   0  0  0  0  0  0  0  0  0  0  0  0
   -0.0511    0.1510    0.3517 C   0  0  0  0  0  0  0  0  0  0  0  0
    1.2358   -0.2725   -0.3579 C   0  0  0  0  0  0  0  0  0  0  0  0
    2.4574    0.0692    0.4781 C   0  0  0  0  0  0  0  0  0  0  0  0
    4.0723   -0.4846   -0.4575 Br  0  0  0  0  0  0  0  0  0  0  0  0
  1  2  1  0
  2  3  1  0
  3  4  1  0
  4  5  1  0
  5  6  1  0
M  END
>  <target>  (821) 
-3.08

$$$$

     RDKit          3D

  7  6  0  0  0  0  0  0  0  0999 V2000
   -3.4619   -0.2914   -0.2468 C   0  0  0  0  0  0  0  0  0  0  0  0
   -2.3275    0.2633    0.5999 C   0  0  0  0  0  0  0  0  0  0  0  0
   -0.9719   -0.2777    0.1445 C   0  0  0  0  0  0  0  0  0  0  0  0
    0.1655    0.2833    1.0002 C   0  0  0  0  0  0  0  0  0  0  0  0
    1.4963   -0.2586    0.5611 C   0  0  0  0  0  0  0  0  0  0  0  0
    2.4951    0.5020    0.0871 C   0  0  0  0  0  0  0  0  0  0  0  0
    3.8208   -0.0351   -0.3444 C   0  0  0  0  0  0  0  0  0  0  0  0
  1  2  1  0
  2  3  1  0
  3  4  1  0
  4  5  1  0
  5  6  2  0
  6  7  1  0
M  END
>  <target>  (822) 
-3.82

$$$$

     RDKit          3D

 12 12  0  0  0  0  0  0  0  0999 V2000
   -0.7146    2.2395    0.8192 C   0  0  0  0  0  0  0  0  0  0  0  0
   -1.0066    0.7809    0.8176 C   0  0  0  0  0  0  0  0  0  0  0  0
   -1.8302    0.1802    1.6568 N   0  0  0  0  0  0  0  0  0  0  0  0
   -1.8172   -1.1455    1.3209 C   0  0  0  0  0  0  0  0  0  0  0  0
   -0.9702   -1.3577    0.2641 C   0  0  0  0  0  0  0  0  0  0  0  0
   -0.6745   -2.5955   -0.3700 N   0  0  0  0  0  0  0  0  0  0  0  0
   -1.4068   -3.5502   -0.0874 O   0  0  0  0  0  0  0  0  0  0  0  0
    0.2912   -2.6336   -1.1408 O   0  0  0  0  0  0  0  0  0  0  0  0
   -0.4553   -0.1285   -0.0729 N   0  0  0  0  0  0  0  0  0  0  0  0
    0.4243    0.2107   -1.1835 C   0  0  0  0  0  0  0  0  0  0  0  0
    1.9028    0.0190   -0.8545 C   0  0  0  0  0  0  0  0  0  0  0  0
    2.3742    1.1117   -0.0713 O   0  0  0  0  0  0  0  0  0  0  0  0
  1  2  1  0
  2  3  2  0
  3  4  1  0
  4  5  2  0
  5  6  1  0
  6  7  1  0
  6  8  2  0
  5  9  1  0
  9 10  1  0
 10 11  1  0
 11 12  1  0
  9  2  1  0
M  CHG  2   6   1   7  -1
M  END
>  <target>  (823) 
-1.26

$$$$

     RDKit          3D

 10 10  0  0  0  0  0  0  0  0999 V2000
   -4.7732   -0.7440   -0.2263 C   0  0  0  0  0  0  0  0  0  0  0  0
   -3.3207   -1.1878   -0.2947 C   0  0  0  0  0  0  0  0  0  0  0  0
   -2.3683    0.0075   -0.2721 C   0  0  0  0  0  0  0  0  0  0  0  0
   -0.9078   -0.4434   -0.3413 C   0  0  0  0  0  0  0  0  0  0  0  0
    0.0445    0.7549   -0.3173 C   0  0  0  0  0  0  0  0  0  0  0  0
    1.5111    0.3418   -0.4530 C   0  0  0  0  0  0  0  0  0  0  0  0
    2.4587    1.5395   -0.4541 C   0  0  0  0  0  0  0  0  0  0  0  0
    3.8240    0.9141   -0.2034 C   0  0  0  0  0  0  0  0  0  0  0  0
    3.5605   -0.3231    0.6541 C   0  0  0  0  0  0  0  0  0  0  0  0
    2.0433   -0.4907    0.7129 C   0  0  0  0  0  0  0  0  0  0  0  0
  1  2  1  0
  2  3  1  0
  3  4  1  0
  4  5  1  0
  5  6  1  0
  6  7  1  0
  7  8  1  0
  8  9  1  0
  9 10  1  0
 10  6  1  0
M  END
>  <target>  (824) 
-6.08

$$$$

     RDKit          3D

 18 19  0  0  0  0  0  0  0  0999 V2000
   -3.8031   -1.5385    2.0318 Cl  0  0  0  0  0  0  0  0  0  0  0  0
   -2.8994   -0.6659    0.8570 C   0  0  0  0  0  0  0  0  0  0  0  0
   -3.5647    0.0511   -0.1336 C   0  0  0  0  0  0  0  0  0  0  0  0
   -2.8303    0.7584   -1.0858 C   0  0  0  0  0  0  0  0  0  0  0  0
   -1.4323    0.7462   -1.0441 C   0  0  0  0  0  0  0  0  0  0  0  0
   -0.5827    1.6442   -2.2545 Cl  0  0  0  0  0  0  0  0  0  0  0  0
   -0.7459    0.0244   -0.0466 C   0  0  0  0  0  0  0  0  0  0  0  0
   -1.5047   -0.6830    0.9052 C   0  0  0  0  0  0  0  0  0  0  0  0
    0.7320   -0.0116    0.0289 C   0  0  0  0  0  0  0  0  0  0  0  0
    1.4703   -1.0071   -0.6582 C   0  0  0  0  0  0  0  0  0  0  0  0
    0.6310   -2.2197   -1.5846 Cl  0  0  0  0  0  0  0  0  0  0  0  0
    2.8730   -1.0239   -0.5950 C   0  0  0  0  0  0  0  0  0  0  0  0
    3.8296   -2.2127   -1.4099 Cl  0  0  0  0  0  0  0  0  0  0  0  0
    3.5556   -0.0609    0.1468 C   0  0  0  0  0  0  0  0  0  0  0  0
    2.8475    0.9247    0.8327 C   0  0  0  0  0  0  0  0  0  0  0  0
    3.7734    2.0761    1.7324 Cl  0  0  0  0  0  0  0  0  0  0  0  0
    1.4446    0.9560    0.7801 C   0  0  0  0  0  0  0  0  0  0  0  0
    0.5731    2.1902    1.6465 Cl  0  0  0  0  0  0  0  0  0  0  0  0
  1  2  1  0
  2  3  2  0
  3  4  1  0
  4  5  2  0
  5  6  1  0
  5  7  1  0
  7  8  2  0
  7  9  1  0
  9 10  2  0
 10 11  1  0
 10 12  1  0
 12 13  1  0
 12 14  2  0
 14 15  1  0
 15 16  1  0
 15 17  2  0
 17 18  1  0
  8  2  1  0
 17  9  1  0
M  END
>  <target>  (825) 
-7.42

$$$$

     RDKit          3D

 14 14  0  0  0  0  0  0  0  0999 V2000
    0.8533   -0.0381    2.3537 O   0  0  0  0  0  0  0  0  0  0  0  0
    0.6794    0.5638    1.2971 C   0  0  0  0  0  0  0  0  0  0  0  0
    0.8901    1.9138    1.2374 N   0  0  0  0  0  0  0  0  0  0  0  0
    1.2953    2.5534    0.1086 C   0  0  0  0  0  0  0  0  0  0  0  0
    1.9306    3.6013    0.1603 O   0  0  0  0  0  0  0  0  0  0  0  0
    1.0489    1.9316   -1.0746 N   0  0  0  0  0  0  0  0  0  0  0  0
    0.8497    0.5829   -1.1833 C   0  0  0  0  0  0  0  0  0  0  0  0
    1.1670   -0.0029   -2.2154 O   0  0  0  0  0  0  0  0  0  0  0  0
    0.1682   -0.0875    0.0109 C   0  0  0  0  0  0  0  0  0  0  0  0
    0.4583   -1.6123    0.0190 C   0  0  0  0  0  0  0  0  0  0  0  0
    1.9377   -1.9905    0.1177 C   0  0  0  0  0  0  0  0  0  0  0  0
   -1.3777    0.2246   -0.0928 C   0  0  0  0  0  0  0  0  0  0  0  0
   -2.0250   -0.2898   -1.3891 C   0  0  0  0  0  0  0  0  0  0  0  0
   -2.1956   -0.3090    1.0947 C   0  0  0  0  0  0  0  0  0  0  0  0
  1  2  2  0
  2  3  1  0
  3  4  1  0
  4  5  2  0
  4  6  1  0
  6  7  1  0
  7  8  2  0
  7  9  1  0
  9 10  1  0
 10 11  1  0
  9 12  1  0
 12 13  1  0
 12 14  1  0
  9  2  1  0
M  END
>  <target>  (826) 
-2.148

$$$$

     RDKit          3D

  5  4  0  0  0  0  0  0  0  0999 V2000
   -0.8208   -0.1577   -0.0432 C   0  0  0  0  0  0  0  0  0  0  0  0
    0.6725    0.1292    0.0354 C   0  0  0  0  0  0  0  0  0  0  0  0
    0.9505    1.8922   -0.0068 Cl  0  0  0  0  0  0  0  0  0  0  0  0
    1.5058   -0.6302   -1.3489 Cl  0  0  0  0  0  0  0  0  0  0  0  0
    1.3345   -0.5337    1.5551 Cl  0  0  0  0  0  0  0  0  0  0  0  0
  1  2  1  0
  2  3  1  0
  2  4  1  0
  2  5  1  0
M  END
>  <target>  (827) 
-2.0

$$$$

     RDKit          3D

 14 14  0  0  0  0  0  0  0  0999 V2000
    2.9009    1.4272   -1.2676 C   0  0  0  0  0  0  0  0  0  0  0  0
    2.2287    0.1742   -1.4102 O   0  0  0  0  0  0  0  0  0  0  0  0
    2.2868   -0.5007   -0.1561 N   0  0  0  0  0  0  0  0  0  0  0  0
    3.2506   -1.5822   -0.2011 C   0  0  0  0  0  0  0  0  0  0  0  0
    1.0340   -0.7715    0.4181 C   0  0  0  0  0  0  0  0  0  0  0  0
    0.8913   -1.6148    1.2991 O   0  0  0  0  0  0  0  0  0  0  0  0
    0.0365    0.0265   -0.1053 N   0  0  0  0  0  0  0  0  0  0  0  0
   -1.3194    0.0892    0.2510 C   0  0  0  0  0  0  0  0  0  0  0  0
   -1.8728   -0.6047    1.3296 C   0  0  0  0  0  0  0  0  0  0  0  0
   -3.2357   -0.4855    1.6255 C   0  0  0  0  0  0  0  0  0  0  0  0
   -4.0481    0.3308    0.8439 C   0  0  0  0  0  0  0  0  0  0  0  0
   -5.7225    0.4773    1.2086 Cl  0  0  0  0  0  0  0  0  0  0  0  0
   -3.5094    1.0312   -0.2315 C   0  0  0  0  0  0  0  0  0  0  0  0
   -2.1477    0.9107   -0.5252 C   0  0  0  0  0  0  0  0  0  0  0  0
  1  2  1  0
  2  3  1  0
  3  4  1  0
  3  5  1  0
  5  6  2  0
  5  7  1  0
  7  8  1  0
  8  9  2  0
  9 10  1  0
 10 11  2  0
 11 12  1  0
 11 13  1  0
 13 14  2  0
 14  8  1  0
M  END
>  <target>  (828) 
-2.57

$$$$

     RDKit          3D

 14 15  0  0  0  0  0  0  0  0999 V2000
   -4.2575    0.7562   -0.4175 O   0  0  0  0  0  0  0  0  0  0  0  0
   -3.0680    0.4632   -0.3560 C   0  0  0  0  0  0  0  0  0  0  0  0
   -2.1234    1.3948   -0.0547 N   0  0  0  0  0  0  0  0  0  0  0  0
   -0.9595    1.0690    0.5884 C   0  0  0  0  0  0  0  0  0  0  0  0
   -0.4632    1.8475    1.3965 O   0  0  0  0  0  0  0  0  0  0  0  0
   -0.3624   -0.2816    0.2016 C   0  0  0  0  0  0  0  0  0  0  0  0
    0.6846   -0.7610    1.2311 C   0  0  0  0  0  0  0  0  0  0  0  0
    2.0213   -0.0202    1.1648 C   0  0  0  0  0  0  0  0  0  0  0  0
    2.5868    0.0089   -0.2482 C   0  0  0  0  0  0  0  0  0  0  0  0
    1.5823    0.5892   -1.2336 C   0  0  0  0  0  0  0  0  0  0  0  0
    0.2640   -0.1823   -1.2112 C   0  0  0  0  0  0  0  0  0  0  0  0
   -1.5068   -1.2892    0.1161 C   0  0  0  0  0  0  0  0  0  0  0  0
   -1.4435   -2.4499    0.5106 O   0  0  0  0  0  0  0  0  0  0  0  0
   -2.6478   -0.8248   -0.4820 N   0  0  0  0  0  0  0  0  0  0  0  0
  1  2  2  0
  2  3  1  0
  3  4  1  0
  4  5  2  0
  4  6  1  0
  6  7  1  0
  7  8  1  0
  8  9  1  0
  9 10  1  0
 10 11  1  0
  6 12  1  0
 12 13  2  0
 12 14  1  0
 11  6  1  0
 14  2  1  0
M  END
>  <target>  (829) 
-3.06

$$$$

     RDKit          3D

 15 15  0  0  0  0  0  0  0  0999 V2000
    3.9320   -1.0498   -0.1781 C   0  0  0  0  0  0  0  0  0  0  0  0
    3.4001    0.2839   -0.3987 N   0  0  0  0  0  0  0  0  0  0  0  0
    4.3620    1.3379   -0.6587 C   0  0  0  0  0  0  0  0  0  0  0  0
    2.0940    0.6339   -0.0760 C   0  0  0  0  0  0  0  0  0  0  0  0
    1.6735    1.7864   -0.1184 O   0  0  0  0  0  0  0  0  0  0  0  0
    1.3356   -0.4498    0.3034 O   0  0  0  0  0  0  0  0  0  0  0  0
   -0.0157   -0.1765    0.6058 C   0  0  0  0  0  0  0  0  0  0  0  0
   -0.4639   -0.3772    1.8505 C   0  0  0  0  0  0  0  0  0  0  0  0
   -1.8870   -0.1363    2.1757 C   0  0  0  0  0  0  0  0  0  0  0  0
   -2.2759   -0.3102    3.3287 O   0  0  0  0  0  0  0  0  0  0  0  0
   -2.8095    0.3709    1.0854 C   0  0  0  0  0  0  0  0  0  0  0  0
   -2.3873   -0.0995   -0.3200 C   0  0  0  0  0  0  0  0  0  0  0  0
   -3.2337    0.6357   -1.3749 C   0  0  0  0  0  0  0  0  0  0  0  0
   -2.6405   -1.6139   -0.4772 C   0  0  0  0  0  0  0  0  0  0  0  0
   -0.8941    0.2306   -0.5492 C   0  0  0  0  0  0  0  0  0  0  0  0
  1  2  1  0
  2  3  1  0
  2  4  1  0
  4  5  2  0
  4  6  1  0
  6  7  1  0
  7  8  2  0
  8  9  1  0
  9 10  2  0
  9 11  1  0
 11 12  1  0
 12 13  1  0
 12 14  1  0
 12 15  1  0
 15  7  1  0
M  END
>  <target>  (830) 
-0.85

$$$$

     RDKit          3D

  8  8  0  0  0  0  0  0  0  0999 V2000
   -2.2720    0.0607    0.0413 C   0  0  0  0  0  0  0  0  0  0  0  0
   -0.7729    0.0244   -0.0106 C   0  0  0  0  0  0  0  0  0  0  0  0
   -0.0993   -1.1909   -0.1890 C   0  0  0  0  0  0  0  0  0  0  0  0
    1.2968   -1.2306   -0.2062 C   0  0  0  0  0  0  0  0  0  0  0  0
    2.0234   -0.0545   -0.0341 C   0  0  0  0  0  0  0  0  0  0  0  0
    3.9130   -0.1069   -0.0560 Br  0  0  0  0  0  0  0  0  0  0  0  0
    1.3673    1.1592    0.1588 C   0  0  0  0  0  0  0  0  0  0  0  0
   -0.0288    1.1968    0.1756 C   0  0  0  0  0  0  0  0  0  0  0  0
  1  2  1  0
  2  3  2  0
  3  4  1  0
  4  5  2  0
  5  6  1  0
  5  7  1  0
  7  8  2  0
  8  2  1  0
M  END
>  <target>  (831) 
-3.19

$$$$

     RDKit          3D

  5  4  0  0  0  0  0  0  0  0999 V2000
    2.3748    0.1494    0.4693 C   0  0  0  0  0  0  0  0  0  0  0  0
    1.1716    0.1988   -0.4511 C   0  0  0  0  0  0  0  0  0  0  0  0
    0.0019   -0.0588    0.3219 O   0  0  0  0  0  0  0  0  0  0  0  0
   -1.1770   -0.0289   -0.4789 C   0  0  0  0  0  0  0  0  0  0  0  0
   -2.3697   -0.3106    0.4131 C   0  0  0  0  0  0  0  0  0  0  0  0
  1  2  1  0
  2  3  1  0
  3  4  1  0
  4  5  1  0
M  END
>  <target>  (832) 
-0.09

$$$$

     RDKit          3D

 21 22  0  0  0  0  0  0  0  0999 V2000
    3.8601    1.1197    2.3863 C   0  0  0  0  0  0  0  0  0  0  0  0
    3.6760    1.1730    0.8735 C   0  0  0  0  0  0  0  0  0  0  0  0
    4.5680    0.1443    0.1821 C   0  0  0  0  0  0  0  0  0  0  0  0
    2.2791    0.9502    0.5346 N   0  0  0  0  0  0  0  0  0  0  0  0
    1.7284    1.3848   -0.6409 C   0  0  0  0  0  0  0  0  0  0  0  0
    2.3309    2.0985   -1.4393 O   0  0  0  0  0  0  0  0  0  0  0  0
    0.4253    0.9756   -0.8671 N   0  0  0  0  0  0  0  0  0  0  0  0
   -0.2654    1.4303   -2.0337 C   0  0  0  0  0  0  0  0  0  0  0  0
   -1.6039    0.7532   -1.8844 C   0  0  0  0  0  0  0  0  0  0  0  0
   -2.5037    0.9263   -2.6974 O   0  0  0  0  0  0  0  0  0  0  0  0
   -1.6060   -0.0164   -0.7401 N   0  0  0  0  0  0  0  0  0  0  0  0
   -0.3711    0.0933   -0.1247 C   0  0  0  0  0  0  0  0  0  0  0  0
    0.0327   -0.4872    0.8765 O   0  0  0  0  0  0  0  0  0  0  0  0
   -2.7019   -0.8131   -0.2722 C   0  0  0  0  0  0  0  0  0  0  0  0
   -3.8318   -1.0570   -1.0729 C   0  0  0  0  0  0  0  0  0  0  0  0
   -4.9000   -1.8365   -0.6109 C   0  0  0  0  0  0  0  0  0  0  0  0
   -6.2579   -2.1138   -1.6333 Cl  0  0  0  0  0  0  0  0  0  0  0  0
   -4.8782   -2.3933    0.6589 C   0  0  0  0  0  0  0  0  0  0  0  0
   -3.7746   -2.1625    1.4659 C   0  0  0  0  0  0  0  0  0  0  0  0
   -3.7280   -2.8357    3.0502 Cl  0  0  0  0  0  0  0  0  0  0  0  0
   -2.7013   -1.3857    1.0120 C   0  0  0  0  0  0  0  0  0  0  0  0
  1  2  1  0
  2  3  1  0
  2  4  1  0
  4  5  1  0
  5  6  2  0
  5  7  1  0
  7  8  1  0
  8  9  1  0
  9 10  2  0
  9 11  1  0
 11 12  1  0
 12 13  2  0
 11 14  1  0
 14 15  2  0
 15 16  1  0
 16 17  1  0
 16 18  2  0
 18 19  1  0
 19 20  1  0
 19 21  2  0
 12  7  1  0
 21 14  1  0
M  END
>  <target>  (833) 
-4.376

$$$$

     RDKit          3D

 23 23  0  0  0  0  0  0  0  0999 V2000
    3.8707    0.0806   -1.8845 C   0  0  0  0  0  0  0  0  0  0  0  0
    3.1206    0.0685   -0.5618 C   0  0  0  0  0  0  0  0  0  0  0  0
    2.1255   -1.0919   -0.4950 C   0  0  0  0  0  0  0  0  0  0  0  0
    1.3632   -1.1404    0.8327 C   0  0  0  0  0  0  0  0  0  0  0  0
    0.4213   -0.0058    0.9603 N   0  0  0  0  0  0  0  0  0  0  0  0
    0.3604    0.6355    2.2908 C   0  0  0  0  0  0  0  0  0  0  0  0
    1.5280    1.5962    2.4693 C   0  0  0  0  0  0  0  0  0  0  0  0
   -0.8261   -0.1474    0.3280 C   0  0  0  0  0  0  0  0  0  0  0  0
   -1.8293   -1.0746    0.6749 C   0  0  0  0  0  0  0  0  0  0  0  0
   -3.0479   -1.1998   -0.0276 C   0  0  0  0  0  0  0  0  0  0  0  0
   -3.3271   -0.3664   -1.1178 C   0  0  0  0  0  0  0  0  0  0  0  0
   -2.3681    0.5835   -1.4842 C   0  0  0  0  0  0  0  0  0  0  0  0
   -1.1618    0.6834   -0.7618 C   0  0  0  0  0  0  0  0  0  0  0  0
   -0.2456    1.7225   -1.1905 N   0  0  0  0  0  0  0  0  0  0  0  0
   -0.2019    2.7535   -0.5059 O   0  0  0  0  0  0  0  0  0  0  0  0
    0.3529    1.5308   -2.2581 O   0  0  0  0  0  0  0  0  0  0  0  0
   -4.6166   -0.5087   -1.8934 C   0  0  0  0  0  0  0  0  0  0  0  0
   -5.6518   -0.9288   -1.1178 F   0  0  0  0  0  0  0  0  0  0  0  0
   -4.5071   -1.4106   -2.9037 F   0  0  0  0  0  0  0  0  0  0  0  0
   -5.0212    0.6574   -2.4639 F   0  0  0  0  0  0  0  0  0  0  0  0
   -1.6786   -1.9540    1.8160 N   0  0  0  0  0  0  0  0  0  0  0  0
   -1.8607   -1.4615    2.9365 O   0  0  0  0  0  0  0  0  0  0  0  0
   -1.4386   -3.1443    1.5754 O   0  0  0  0  0  0  0  0  0  0  0  0
  1  2  1  0
  2  3  1  0
  3  4  1  0
  4  5  1  0
  5  6  1  0
  6  7  1  0
  5  8  1  0
  8  9  2  0
  9 10  1  0
 10 11  2  0
 11 12  1  0
 12 13  2  0
 13 14  1  0
 14 15  1  0
 14 16  2  0
 11 17  1  0
 17 18  1  0
 17 19  1  0
 17 20  1  0
  9 21  1  0
 21 22  1  0
 21 23  2  0
 13  8  1  0
M  CHG  4  14   1  15  -1  21   1  22  -1
M  END
>  <target>  (834) 
-5.53

$$$$

     RDKit          3D

 10 10  0  0  0  0  0  0  0  0999 V2000
    2.8586   -0.4612   -0.9630 C   0  0  0  0  0  0  0  0  0  0  0  0
    1.4466   -0.2176   -0.5183 C   0  0  0  0  0  0  0  0  0  0  0  0
    0.9321    1.0828   -0.4777 C   0  0  0  0  0  0  0  0  0  0  0  0
   -0.3751    1.3245   -0.0347 C   0  0  0  0  0  0  0  0  0  0  0  0
   -0.9139    2.7265   -0.0047 C   0  0  0  0  0  0  0  0  0  0  0  0
   -1.1634    0.2425    0.3815 C   0  0  0  0  0  0  0  0  0  0  0  0
   -2.4337    0.5280    0.8064 O   0  0  0  0  0  0  0  0  0  0  0  0
   -0.6667   -1.0691    0.3654 C   0  0  0  0  0  0  0  0  0  0  0  0
   -1.4848   -2.2461    0.8128 C   0  0  0  0  0  0  0  0  0  0  0  0
    0.6464   -1.2819   -0.0841 C   0  0  0  0  0  0  0  0  0  0  0  0
  1  2  1  0
  2  3  2  0
  3  4  1  0
  4  5  1  0
  4  6  2  0
  6  7  1  0
  6  8  1  0
  8  9  1  0
  8 10  2  0
 10  2  1  0
M  END
>  <target>  (835) 
-2.05

$$$$

     RDKit          3D

  6  6  0  0  0  0  0  0  0  0999 V2000
    0.7681   -1.1640    0.0269 C   0  0  0  0  0  0  0  0  0  0  0  0
    1.3921    0.0835    0.0239 C   0  0  0  0  0  0  0  0  0  0  0  0
    0.6240    1.2475   -0.0030 C   0  0  0  0  0  0  0  0  0  0  0  0
   -0.7681    1.1640   -0.0269 C   0  0  0  0  0  0  0  0  0  0  0  0
   -1.3921   -0.0835   -0.0239 C   0  0  0  0  0  0  0  0  0  0  0  0
   -0.6240   -1.2475    0.0030 C   0  0  0  0  0  0  0  0  0  0  0  0
  1  2  2  0
  2  3  1  0
  3  4  2  0
  4  5  1  0
  5  6  2  0
  6  1  1  0
M  END
>  <target>  (836) 
-1.64

$$$$

     RDKit          3D

  8  8  0  0  0  0  0  0  0  0999 V2000
   -3.1384    0.0861   -0.0237 Cl  0  0  0  0  0  0  0  0  0  0  0  0
   -1.4188    0.0389   -0.0107 C   0  0  0  0  0  0  0  0  0  0  0  0
   -0.7598   -1.1901   -0.0100 C   0  0  0  0  0  0  0  0  0  0  0  0
    0.6368   -1.2297    0.0005 C   0  0  0  0  0  0  0  0  0  0  0  0
    1.3628   -0.0374    0.0103 C   0  0  0  0  0  0  0  0  0  0  0  0
    3.4403   -0.0944    0.0260 I   0  0  0  0  0  0  0  0  0  0  0  0
    0.7032    1.1929    0.0096 C   0  0  0  0  0  0  0  0  0  0  0  0
   -0.6935    1.2299   -0.0010 C   0  0  0  0  0  0  0  0  0  0  0  0
  1  2  1  0
  2  3  2  0
  3  4  1  0
  4  5  2  0
  5  6  1  0
  5  7  1  0
  7  8  2  0
  8  2  1  0
M  END
>  <target>  (837) 
-4.03

$$$$

     RDKit          3D

 15 15  0  0  0  0  0  0  0  0999 V2000
    5.2546    0.1132   -0.4393 C   0  0  0  0  0  0  0  0  0  0  0  0
    4.4242   -0.8497    0.1961 O   0  0  0  0  0  0  0  0  0  0  0  0
    3.0717   -0.6334    0.1756 C   0  0  0  0  0  0  0  0  0  0  0  0
    2.4487    0.4396   -0.4652 C   0  0  0  0  0  0  0  0  0  0  0  0
    1.0536    0.5788   -0.4338 C   0  0  0  0  0  0  0  0  0  0  0  0
    0.2579   -0.3454    0.2433 C   0  0  0  0  0  0  0  0  0  0  0  0
   -1.1489   -0.2728    0.3009 N   0  0  0  0  0  0  0  0  0  0  0  0
   -1.9447    0.7999   -0.0368 C   0  0  0  0  0  0  0  0  0  0  0  0
   -1.5248    1.9271   -0.2850 O   0  0  0  0  0  0  0  0  0  0  0  0
   -3.3127    0.5098   -0.0402 N   0  0  0  0  0  0  0  0  0  0  0  0
   -4.2176    1.6257   -0.2626 C   0  0  0  0  0  0  0  0  0  0  0  0
   -3.8603   -0.8045   -0.3525 C   0  0  0  0  0  0  0  0  0  0  0  0
    0.8748   -1.4277    0.8757 C   0  0  0  0  0  0  0  0  0  0  0  0
    2.2674   -1.5680    0.8440 C   0  0  0  0  0  0  0  0  0  0  0  0
    2.9565   -2.9330    1.6560 Cl  0  0  0  0  0  0  0  0  0  0  0  0
  1  2  1  0
  2  3  1  0
  3  4  2  0
  4  5  1  0
  5  6  2  0
  6  7  1  0
  7  8  1  0
  8  9  2  0
  8 10  1  0
 10 11  1  0
 10 12  1  0
  6 13  1  0
 13 14  2  0
 14 15  1  0
 14  3  1  0
M  END
>  <target>  (838) 
-2.5639999999999996

$$$$

     RDKit          3D

 14 14  0  0  0  0  0  0  0  0999 V2000
   -2.2200   -1.5597   -1.0994 C   0  0  0  0  0  0  0  0  0  0  0  0
   -1.3408   -1.1433    0.0826 C   0  0  0  0  0  0  0  0  0  0  0  0
   -2.1441   -1.0764    1.3855 C   0  0  0  0  0  0  0  0  0  0  0  0
   -0.5933    0.1121   -0.1884 N   0  0  0  0  0  0  0  0  0  0  0  0
   -1.2930    1.3021   -0.4338 C   0  0  0  0  0  0  0  0  0  0  0  0
   -2.5199    1.3834   -0.3121 O   0  0  0  0  0  0  0  0  0  0  0  0
   -0.5224    2.4957   -0.9851 C   0  0  0  0  0  0  0  0  0  0  0  0
   -0.5850    3.8415    0.1715 Cl  0  0  0  0  0  0  0  0  0  0  0  0
    0.8146    0.0618    0.0342 C   0  0  0  0  0  0  0  0  0  0  0  0
    1.4379    0.9562    0.9123 C   0  0  0  0  0  0  0  0  0  0  0  0
    2.8162    0.8909    1.1303 C   0  0  0  0  0  0  0  0  0  0  0  0
    3.5814   -0.0744    0.4798 C   0  0  0  0  0  0  0  0  0  0  0  0
    2.9687   -0.9811   -0.3821 C   0  0  0  0  0  0  0  0  0  0  0  0
    1.5903   -0.9179   -0.5990 C   0  0  0  0  0  0  0  0  0  0  0  0
  1  2  1  0
  2  3  1  0
  2  4  1  0
  4  5  1  0
  5  6  2  0
  5  7  1  0
  7  8  1  0
  4  9  1  0
  9 10  2  0
 10 11  1  0
 11 12  2  0
 12 13  1  0
 13 14  2  0
 14  9  1  0
M  END
>  <target>  (839) 
-2.48

$$$$

     RDKit          3D

  8  8  0  0  0  0  0  0  0  0999 V2000
    2.8448    0.1054   -0.0644 C   0  0  0  0  0  0  0  0  0  0  0  0
    1.7874   -0.7011    0.0948 C   0  0  0  0  0  0  0  0  0  0  0  0
    0.3864   -0.2764   -0.0308 C   0  0  0  0  0  0  0  0  0  0  0  0
   -0.5571   -1.1929   -0.5141 C   0  0  0  0  0  0  0  0  0  0  0  0
   -1.9047   -0.8393   -0.6232 C   0  0  0  0  0  0  0  0  0  0  0  0
   -2.3254    0.4318   -0.2391 C   0  0  0  0  0  0  0  0  0  0  0  0
   -1.4006    1.3473    0.2581 C   0  0  0  0  0  0  0  0  0  0  0  0
   -0.0527    0.9935    0.3664 C   0  0  0  0  0  0  0  0  0  0  0  0
  1  2  2  0
  2  3  1  0
  3  4  2  0
  4  5  1  0
  5  6  2  0
  6  7  1  0
  7  8  2  0
  8  3  1  0
M  END
>  <target>  (840) 
-2.82

$$$$

     RDKit          3D

  5  4  0  0  0  0  0  0  0  0999 V2000
    1.8161    0.3313   -0.3621 C   0  0  0  0  0  0  0  0  0  0  0  0
    0.8404    0.5893    0.6385 O   0  0  0  0  0  0  0  0  0  0  0  0
    0.0108   -0.5438    0.8683 C   0  0  0  0  0  0  0  0  0  0  0  0
   -0.8354   -0.8411   -0.2365 O   0  0  0  0  0  0  0  0  0  0  0  0
   -1.8259    0.1608   -0.4236 C   0  0  0  0  0  0  0  0  0  0  0  0
  1  2  1  0
  2  3  1  0
  3  4  1  0
  4  5  1  0
M  END
>  <target>  (841) 
0.48

$$$$

     RDKit          3D

  8  8  0  0  0  0  0  0  0  0999 V2000
    1.8601   -1.0010   -0.2747 C   0  0  0  0  0  0  0  0  0  0  0  0
    0.4163   -0.6005   -0.1427 C   0  0  0  0  0  0  0  0  0  0  0  0
   -0.5843   -1.5691   -0.3201 C   0  0  0  0  0  0  0  0  0  0  0  0
   -1.9327   -1.2323   -0.2049 C   0  0  0  0  0  0  0  0  0  0  0  0
   -2.2982    0.0770    0.0891 C   0  0  0  0  0  0  0  0  0  0  0  0
   -1.3157    1.0503    0.2681 C   0  0  0  0  0  0  0  0  0  0  0  0
    0.0458    0.7267    0.1554 C   0  0  0  0  0  0  0  0  0  0  0  0
    1.0772    1.8031    0.3551 C   0  0  0  0  0  0  0  0  0  0  0  0
  1  2  1  0
  2  3  2  0
  3  4  1  0
  4  5  2  0
  5  6  1  0
  6  7  2  0
  7  8  1  0
  7  2  1  0
M  END
>  <target>  (842) 
-2.8

$$$$

     RDKit          3D

  5  4  0  0  0  0  0  0  0  0999 V2000
    1.9074    0.1793   -0.7808 C   0  0  0  0  0  0  0  0  0  0  0  0
    0.5290    0.7026   -0.3989 C   0  0  0  0  0  0  0  0  0  0  0  0
   -0.3743   -0.3979    0.1620 C   0  0  0  0  0  0  0  0  0  0  0  0
   -1.7196    0.1638    0.6018 C   0  0  0  0  0  0  0  0  0  0  0  0
   -0.5933   -1.3812   -0.8457 O   0  0  0  0  0  0  0  0  0  0  0  0
  1  2  1  0
  2  3  1  0
  3  4  1  0
  3  5  1  0
M  END
>  <target>  (843) 
0.47

$$$$

     RDKit          3D

  8  8  0  0  0  0  0  0  0  0999 V2000
   -2.7270   -0.2075   -0.2580 O   0  0  0  0  0  0  0  0  0  0  0  0
   -1.3751   -0.0815   -0.1335 C   0  0  0  0  0  0  0  0  0  0  0  0
   -0.6382   -1.2353    0.1170 C   0  0  0  0  0  0  0  0  0  0  0  0
    0.7485   -1.1562    0.2521 C   0  0  0  0  0  0  0  0  0  0  0  0
    1.3751    0.0815    0.1335 C   0  0  0  0  0  0  0  0  0  0  0  0
    2.7270    0.2075    0.2580 O   0  0  0  0  0  0  0  0  0  0  0  0
    0.6382    1.2353   -0.1170 C   0  0  0  0  0  0  0  0  0  0  0  0
   -0.7485    1.1562   -0.2521 C   0  0  0  0  0  0  0  0  0  0  0  0
  1  2  1  0
  2  3  2  0
  3  4  1  0
  4  5  2  0
  5  6  1  0
  5  7  1  0
  7  8  2  0
  8  2  1  0
M  END
>  <target>  (844) 
-0.17

$$$$

     RDKit          3D

 21 24  0  0  0  0  0  0  0  0999 V2000
   -2.4458    2.0124    0.0094 C   0  0  0  0  0  0  0  0  0  0  0  0
   -2.2147    0.5442    0.4045 C   0  0  0  0  0  0  0  0  0  0  0  0
   -1.4001    0.4801    1.7154 C   0  0  0  0  0  0  0  0  0  0  0  0
    0.0839    0.8056    1.5293 C   0  0  0  0  0  0  0  0  0  0  0  0
    0.7429   -0.1052    0.4741 C   0  0  0  0  0  0  0  0  0  0  0  0
   -0.0274    0.0330   -0.8628 C   0  0  0  0  0  0  0  0  0  0  0  0
    0.6365   -0.8394   -1.9309 C   0  0  0  0  0  0  0  0  0  0  0  0
    2.0366   -0.3133   -2.2274 C   0  0  0  0  0  0  0  0  0  0  0  0
    2.8416   -0.0088   -0.9870 C   0  0  0  0  0  0  0  0  0  0  0  0
    4.2270    0.1863   -1.1356 C   0  0  0  0  0  0  0  0  0  0  0  0
    5.0153    0.4755   -0.0290 C   0  0  0  0  0  0  0  0  0  0  0  0
    6.3607    0.6641   -0.1416 O   0  0  0  0  0  0  0  0  0  0  0  0
    4.4504    0.5731    1.2309 C   0  0  0  0  0  0  0  0  0  0  0  0
    3.0750    0.3911    1.3880 C   0  0  0  0  0  0  0  0  0  0  0  0
    2.2420    0.1262    0.2852 C   0  0  0  0  0  0  0  0  0  0  0  0
   -1.5340   -0.2535   -0.7307 C   0  0  0  0  0  0  0  0  0  0  0  0
   -1.9198   -1.7241   -0.4689 C   0  0  0  0  0  0  0  0  0  0  0  0
   -3.1915   -1.6831    0.3827 C   0  0  0  0  0  0  0  0  0  0  0  0
   -4.2435   -2.4125   -0.2378 O   0  0  0  0  0  0  0  0  0  0  0  0
   -3.5615   -0.1982    0.5107 C   0  0  0  0  0  0  0  0  0  0  0  0
   -4.2482    0.0400    1.7310 O   0  0  0  0  0  0  0  0  0  0  0  0
  1  2  1  0
  2  3  1  0
  3  4  1  0
  4  5  1  0
  5  6  1  0
  6  7  1  0
  7  8  1  0
  8  9  1  0
  9 10  2  0
 10 11  1  0
 11 12  1  0
 11 13  2  0
 13 14  1  0
 14 15  2  0
  6 16  1  0
 16 17  1  0
 17 18  1  0
 18 19  1  0
 18 20  1  0
 20 21  1  0
 15  5  1  0
 15  9  1  0
 16  2  1  0
 20  2  1  0
M  END
>  <target>  (845) 
-4.955

$$$$

     RDKit          3D

 17 20  0  0  0  0  0  0  0  0999 V2000
   -1.4840   -0.2792   -1.8327 C   0  0  0  0  0  0  0  0  0  0  0  0
   -2.4788    0.0262   -0.7317 C   0  0  0  0  0  0  0  0  0  0  0  0
   -3.8583    0.1077   -0.8228 C   0  0  0  0  0  0  0  0  0  0  0  0
   -4.5746    0.4054    0.3380 C   0  0  0  0  0  0  0  0  0  0  0  0
   -3.9104    0.6151    1.5589 C   0  0  0  0  0  0  0  0  0  0  0  0
   -2.5166    0.5309    1.6420 C   0  0  0  0  0  0  0  0  0  0  0  0
   -1.8052    0.2357    0.4914 C   0  0  0  0  0  0  0  0  0  0  0  0
   -0.3823    0.0849    0.2694 C   0  0  0  0  0  0  0  0  0  0  0  0
    0.6863    0.1918    1.1439 C   0  0  0  0  0  0  0  0  0  0  0  0
    1.9917   -0.0063    0.6580 C   0  0  0  0  0  0  0  0  0  0  0  0
    3.0997    0.0937    1.5134 C   0  0  0  0  0  0  0  0  0  0  0  0
    4.3951   -0.1027    1.0318 C   0  0  0  0  0  0  0  0  0  0  0  0
    4.6021   -0.4018   -0.3115 C   0  0  0  0  0  0  0  0  0  0  0  0
    3.5146   -0.5061   -1.1804 C   0  0  0  0  0  0  0  0  0  0  0  0
    2.2042   -0.3126   -0.7176 C   0  0  0  0  0  0  0  0  0  0  0  0
    1.1099   -0.4176   -1.5918 C   0  0  0  0  0  0  0  0  0  0  0  0
   -0.1654   -0.2181   -1.0889 C   0  0  0  0  0  0  0  0  0  0  0  0
  1  2  1  0
  2  3  2  0
  3  4  1  0
  4  5  2  0
  5  6  1  0
  6  7  2  0
  7  8  1  0
  8  9  2  0
  9 10  1  0
 10 11  2  0
 11 12  1  0
 12 13  2  0
 13 14  1  0
 14 15  2  0
 15 16  1  0
 16 17  2  0
 17  1  1  0
  7  2  1  0
 17  8  1  0
 15 10  1  0
M  END
>  <target>  (846) 
-8.04

$$$$

     RDKit          3D

  7  7  0  0  0  0  0  0  0  0999 V2000
   -1.5693   -1.8020   -0.1253 O   0  0  0  0  0  0  0  0  0  0  0  0
   -0.7308   -0.9163   -0.0689 C   0  0  0  0  0  0  0  0  0  0  0  0
   -1.0077    0.5622    0.1548 C   0  0  0  0  0  0  0  0  0  0  0  0
    0.3325    1.0818    0.1223 N   0  0  0  0  0  0  0  0  0  0  0  0
    1.2627    0.0916   -0.0851 C   0  0  0  0  0  0  0  0  0  0  0  0
    2.4656    0.2631   -0.1546 O   0  0  0  0  0  0  0  0  0  0  0  0
    0.6121   -1.0900   -0.1965 N   0  0  0  0  0  0  0  0  0  0  0  0
  1  2  2  0
  2  3  1  0
  3  4  1  0
  4  5  1  0
  5  6  2  0
  5  7  1  0
  7  2  1  0
M  END
>  <target>  (847) 
-0.4

$$$$

     RDKit          3D

 14 14  0  0  0  0  0  0  0  0999 V2000
    2.5750   -1.1273   -0.1043 C   0  0  0  0  0  0  0  0  0  0  0  0
    2.3455   -2.3733   -0.6181 O   0  0  0  0  0  0  0  0  0  0  0  0
    3.6437   -0.3655   -0.5742 C   0  0  0  0  0  0  0  0  0  0  0  0
    3.8659    0.8971   -0.0378 C   0  0  0  0  0  0  0  0  0  0  0  0
    4.9204    1.6150   -0.5214 O   0  0  0  0  0  0  0  0  0  0  0  0
    3.0395    1.4069    0.9576 C   0  0  0  0  0  0  0  0  0  0  0  0
    1.9709    0.6369    1.4230 C   0  0  0  0  0  0  0  0  0  0  0  0
    1.7244   -0.6415    0.8967 C   0  0  0  0  0  0  0  0  0  0  0  0
    0.5568   -1.4526    1.4067 C   0  0  0  0  0  0  0  0  0  0  0  0
   -0.6490   -1.4735    0.4599 C   0  0  0  0  0  0  0  0  0  0  0  0
   -1.3364   -0.1107    0.3300 C   0  0  0  0  0  0  0  0  0  0  0  0
   -2.5883   -0.2029   -0.5453 C   0  0  0  0  0  0  0  0  0  0  0  0
   -3.2737    1.1567   -0.6794 C   0  0  0  0  0  0  0  0  0  0  0  0
   -4.5182    1.0698   -1.5484 C   0  0  0  0  0  0  0  0  0  0  0  0
  1  2  1  0
  1  3  2  0
  3  4  1  0
  4  5  1  0
  4  6  2  0
  6  7  1  0
  7  8  2  0
  8  9  1  0
  9 10  1  0
 10 11  1  0
 11 12  1  0
 12 13  1  0
 13 14  1  0
  8  1  1  0
M  END
>  <target>  (848) 
-2.59

$$$$

     RDKit          3D

  9  8  0  0  0  0  0  0  0  0999 V2000
   -4.5140    0.0058   -0.5322 C   0  0  0  0  0  0  0  0  0  0  0  0
   -3.4234    0.0236    0.2458 C   0  0  0  0  0  0  0  0  0  0  0  0
   -2.1191    0.6636   -0.1282 C   0  0  0  0  0  0  0  0  0  0  0  0
   -0.7773   -0.5742   -0.1250 S   0  0  0  0  0  0  0  0  0  0  0  0
   -0.4548   -0.9166    1.3000 O   0  0  0  0  0  0  0  0  0  0  0  0
    0.8557    0.6074   -0.5777 S   0  0  0  0  0  0  0  0  0  0  0  0
    2.2116   -0.3467    0.1599 C   0  0  0  0  0  0  0  0  0  0  0  0
    3.5183    0.2855   -0.2198 C   0  0  0  0  0  0  0  0  0  0  0  0
    4.4602   -0.3071   -0.9664 C   0  0  0  0  0  0  0  0  0  0  0  0
  1  2  2  0
  2  3  1  0
  3  4  1  0
  4  5  2  0
  4  6  1  0
  6  7  1  0
  7  8  1  0
  8  9  2  0
M  END
>  <target>  (849) 
-0.83

$$$$

     RDKit          3D

 22 23  0  0  0  0  0  0  0  0999 V2000
   -4.3638    3.3396    0.4909 C   0  0  0  0  0  0  0  0  0  0  0  0
   -3.5080    2.4933   -0.4289 C   0  0  0  0  0  0  0  0  0  0  0  0
   -3.0765    1.3464    0.2851 O   0  0  0  0  0  0  0  0  0  0  0  0
   -1.8914    0.4403   -0.3488 P   0  0  0  0  0  0  0  0  0  0  0  0
   -2.2640   -0.3626   -2.0761 S   0  0  0  0  0  0  0  0  0  0  0  0
   -1.6007   -0.5791    0.8770 O   0  0  0  0  0  0  0  0  0  0  0  0
   -2.6346   -1.4596    1.2840 C   0  0  0  0  0  0  0  0  0  0  0  0
   -2.1636   -2.2188    2.5076 C   0  0  0  0  0  0  0  0  0  0  0  0
   -0.6332    1.4498   -0.2531 O   0  0  0  0  0  0  0  0  0  0  0  0
    0.6835    1.1319   -0.4404 C   0  0  0  0  0  0  0  0  0  0  0  0
    1.5628    2.2141   -0.4586 C   0  0  0  0  0  0  0  0  0  0  0  0
    2.9255    1.9995   -0.6371 C   0  0  0  0  0  0  0  0  0  0  0  0
    3.3957    0.6961   -0.7936 C   0  0  0  0  0  0  0  0  0  0  0  0
    4.7816    0.5565   -0.9652 O   0  0  0  0  0  0  0  0  0  0  0  0
    5.3760   -0.6870   -1.1220 C   0  0  0  0  0  0  0  0  0  0  0  0
    6.5914   -0.7837   -1.2609 O   0  0  0  0  0  0  0  0  0  0  0  0
    4.4621   -1.8626   -1.1098 C   0  0  0  0  0  0  0  0  0  0  0  0
    5.2530   -3.3967   -1.3179 Cl  0  0  0  0  0  0  0  0  0  0  0  0
    3.1276   -1.7586   -0.9500 C   0  0  0  0  0  0  0  0  0  0  0  0
    2.1803   -2.9326   -0.9379 C   0  0  0  0  0  0  0  0  0  0  0  0
    2.5474   -0.4094   -0.7775 C   0  0  0  0  0  0  0  0  0  0  0  0
    1.1736   -0.1693   -0.5939 C   0  0  0  0  0  0  0  0  0  0  0  0
  1  2  1  0
  2  3  1  0
  3  4  1  0
  4  5  2  0
  4  6  1  0
  6  7  1  0
  7  8  1  0
  4  9  1  0
  9 10  1  0
 10 11  2  0
 11 12  1  0
 12 13  2  0
 13 14  1  0
 14 15  1  0
 15 16  2  0
 15 17  1  0
 17 18  1  0
 17 19  2  0
 19 20  1  0
 19 21  1  0
 21 22  2  0
 21 13  1  0
 22 10  1  0
M  END
>  <target>  (850) 
-5.382000000000001

$$$$

     RDKit          3D

 20 23  0  0  0  0  0  0  0  0999 V2000
   -1.9208    2.9391    0.3811 C   0  0  0  0  0  0  0  0  0  0  0  0
   -1.3941    1.5277    0.1980 C   0  0  0  0  0  0  0  0  0  0  0  0
   -0.0231    1.3170   -0.1198 C   0  0  0  0  0  0  0  0  0  0  0  0
    0.7716    2.5245   -0.5819 C   0  0  0  0  0  0  0  0  0  0  0  0
    0.5648    0.0038   -0.1052 C   0  0  0  0  0  0  0  0  0  0  0  0
    2.0061   -0.2964   -0.1313 C   0  0  0  0  0  0  0  0  0  0  0  0
    3.0545    0.6339    0.1137 C   0  0  0  0  0  0  0  0  0  0  0  0
    4.4153    0.3098    0.0359 C   0  0  0  0  0  0  0  0  0  0  0  0
    4.7970   -0.9831   -0.2668 C   0  0  0  0  0  0  0  0  0  0  0  0
    3.8154   -1.9481   -0.4480 C   0  0  0  0  0  0  0  0  0  0  0  0
    2.4495   -1.6227   -0.3552 C   0  0  0  0  0  0  0  0  0  0  0  0
    1.5230   -2.6440   -0.4590 C   0  0  0  0  0  0  0  0  0  0  0  0
    0.1690   -2.3835   -0.2843 C   0  0  0  0  0  0  0  0  0  0  0  0
   -0.3533   -1.0872   -0.0769 C   0  0  0  0  0  0  0  0  0  0  0  0
   -1.7677   -0.8835    0.1379 C   0  0  0  0  0  0  0  0  0  0  0  0
   -2.7124   -1.9486    0.2244 C   0  0  0  0  0  0  0  0  0  0  0  0
   -4.0764   -1.7512    0.4472 C   0  0  0  0  0  0  0  0  0  0  0  0
   -4.5584   -0.4688    0.5926 C   0  0  0  0  0  0  0  0  0  0  0  0
   -3.6703    0.6003    0.5161 C   0  0  0  0  0  0  0  0  0  0  0  0
   -2.2772    0.4274    0.2972 C   0  0  0  0  0  0  0  0  0  0  0  0
  1  2  1  0
  2  3  2  0
  3  4  1  0
  3  5  1  0
  5  6  2  0
  6  7  1  0
  7  8  2  0
  8  9  1  0
  9 10  2  0
 10 11  1  0
 11 12  2  0
 12 13  1  0
 13 14  2  0
 14 15  1  0
 15 16  2  0
 16 17  1  0
 17 18  2  0
 18 19  1  0
 19 20  2  0
 20  2  1  0
 14  5  1  0
 11  6  1  0
 20 15  1  0
M  END
>  <target>  (851) 
-7.01

$$$$

     RDKit          3D

 34 37  0  0  0  0  0  0  0  0999 V2000
    7.3244    0.7516   -0.7412 C   0  0  0  0  0  0  0  0  0  0  0  0
    6.1887    0.9676    0.2467 C   0  0  0  0  0  0  0  0  0  0  0  0
    5.0291    1.7328   -0.3941 C   0  0  0  0  0  0  0  0  0  0  0  0
    3.8849    1.9802    0.5841 C   0  0  0  0  0  0  0  0  0  0  0  0
    3.1285    0.7196    0.9174 C   0  0  0  0  0  0  0  0  0  0  0  0
    3.1604    0.1606    2.0016 O   0  0  0  0  0  0  0  0  0  0  0  0
    2.4162    0.2934   -0.1567 O   0  0  0  0  0  0  0  0  0  0  0  0
    1.5312   -0.8394   -0.0345 C   0  0  0  0  0  0  0  0  0  0  0  0
    1.0960   -1.2853   -1.4829 C   0  0  0  0  0  0  0  0  0  0  0  0
    1.6177   -0.4244   -2.6329 C   0  0  0  0  0  0  0  0  0  0  0  0
   -0.4376   -1.3706   -1.4829 C   0  0  0  0  0  0  0  0  0  0  0  0
   -0.8680   -1.3548   -0.0104 C   0  0  0  0  0  0  0  0  0  0  0  0
   -2.3493   -0.9765    0.2467 C   0  0  0  0  0  0  0  0  0  0  0  0
   -3.2874   -1.9245   -0.5263 C   0  0  0  0  0  0  0  0  0  0  0  0
   -4.7563   -1.6466   -0.2290 C   0  0  0  0  0  0  0  0  0  0  0  0
   -5.0808   -0.2002   -0.5024 C   0  0  0  0  0  0  0  0  0  0  0  0
   -6.0393    0.1242   -1.3885 C   0  0  0  0  0  0  0  0  0  0  0  0
   -6.3510    1.5282   -1.7228 C   0  0  0  0  0  0  0  0  0  0  0  0
   -7.2527    1.8133   -2.5010 O   0  0  0  0  0  0  0  0  0  0  0  0
   -5.5309    2.5726   -1.0804 C   0  0  0  0  0  0  0  0  0  0  0  0
   -4.5751    2.2553   -0.1965 C   0  0  0  0  0  0  0  0  0  0  0  0
   -4.2235    0.8353    0.2511 C   0  0  0  0  0  0  0  0  0  0  0  0
   -4.6119    0.7580    1.7463 C   0  0  0  0  0  0  0  0  0  0  0  0
   -2.6952    0.5145   -0.0431 C   0  0  0  0  0  0  0  0  0  0  0  0
   -2.5231    0.7056   -1.4016 F   0  0  0  0  0  0  0  0  0  0  0  0
   -1.6703    1.4630    0.6328 C   0  0  0  0  0  0  0  0  0  0  0  0
   -1.8566    1.5618    2.0393 O   0  0  0  0  0  0  0  0  0  0  0  0
   -0.2125    1.0673    0.3283 C   0  0  0  0  0  0  0  0  0  0  0  0
    0.1616   -0.4153    0.6582 C   0  0  0  0  0  0  0  0  0  0  0  0
    0.1731   -0.5856    2.1938 C   0  0  0  0  0  0  0  0  0  0  0  0
    2.2120   -2.1325    0.5319 C   0  0  0  0  0  0  0  0  0  0  0  0
    1.5792   -3.0430    1.0787 O   0  0  0  0  0  0  0  0  0  0  0  0
    3.6996   -2.3331    0.2459 C   0  0  0  0  0  0  0  0  0  0  0  0
    4.0138   -3.7163    0.1430 O   0  0  0  0  0  0  0  0  0  0  0  0
  1  2  1  0
  2  3  1  0
  3  4  1  0
  4  5  1  0
  5  6  2  0
  5  7  1  0
  7  8  1  0
  8  9  1  0
  9 10  1  0
  9 11  1  0
 11 12  1  0
 12 13  1  0
 13 14  1  0
 14 15  1  0
 15 16  1  0
 16 17  2  0
 17 18  1  0
 18 19  2  0
 18 20  1  0
 20 21  2  0
 21 22  1  0
 22 23  1  0
 22 24  1  0
 24 25  1  0
 24 26  1  0
 26 27  1  0
 26 28  1  0
 28 29  1  0
 29 30  1  0
  8 31  1  0
 31 32  2  0
 31 33  1  0
 33 34  1  0
 22 16  1  0
 24 13  1  0
 29  8  1  0
 29 12  1  0
M  END
>  <target>  (852) 
-4.71

$$$$

     RDKit          3D

 12 13  0  0  0  0  0  0  0  0999 V2000
   -3.1742    1.2473   -0.0839 O   0  0  0  0  0  0  0  0  0  0  0  0
   -2.1016    0.6551   -0.0473 C   0  0  0  0  0  0  0  0  0  0  0  0
   -2.0245   -0.7203    0.0203 N   0  0  0  0  0  0  0  0  0  0  0  0
   -0.8691   -1.4728    0.0654 C   0  0  0  0  0  0  0  0  0  0  0  0
   -0.8545   -2.6953    0.1251 O   0  0  0  0  0  0  0  0  0  0  0  0
    0.3532   -0.6677    0.0351 C   0  0  0  0  0  0  0  0  0  0  0  0
    1.6616   -1.0521    0.0634 N   0  0  0  0  0  0  0  0  0  0  0  0
    2.4547    0.1073    0.0127 C   0  0  0  0  0  0  0  0  0  0  0  0
    3.6674    0.1818    0.0179 O   0  0  0  0  0  0  0  0  0  0  0  0
    1.5330    1.1760   -0.0461 N   0  0  0  0  0  0  0  0  0  0  0  0
    0.2740    0.6614   -0.0302 C   0  0  0  0  0  0  0  0  0  0  0  0
   -0.9000    1.3241   -0.0711 N   0  0  0  0  0  0  0  0  0  0  0  0
  1  2  2  0
  2  3  1  0
  3  4  1  0
  4  5  2  0
  4  6  1  0
  6  7  1  0
  7  8  1  0
  8  9  2  0
  8 10  1  0
 10 11  1  0
 11 12  1  0
 11  6  2  0
 12  2  1  0
M  END
>  <target>  (853) 
-3.93

$$$$

     RDKit          3D

 11 11  0  0  0  0  0  0  0  0999 V2000
    2.4327   -0.6899    0.2021 O   0  0  0  0  0  0  0  0  0  0  0  0
    1.1059   -0.3592    0.0782 C   0  0  0  0  0  0  0  0  0  0  0  0
    0.2024   -1.3277   -0.3645 C   0  0  0  0  0  0  0  0  0  0  0  0
    0.7148   -2.9270   -0.7584 Cl  0  0  0  0  0  0  0  0  0  0  0  0
   -1.1482   -1.0121   -0.4970 C   0  0  0  0  0  0  0  0  0  0  0  0
   -1.5999    0.2744   -0.1868 C   0  0  0  0  0  0  0  0  0  0  0  0
   -3.2923    0.5798   -0.3798 Cl  0  0  0  0  0  0  0  0  0  0  0  0
   -0.7029    1.2582    0.2594 C   0  0  0  0  0  0  0  0  0  0  0  0
   -1.2684    2.8539    0.6433 Cl  0  0  0  0  0  0  0  0  0  0  0  0
    0.6568    0.9328    0.3905 C   0  0  0  0  0  0  0  0  0  0  0  0
    1.8299    2.0913    0.9356 Cl  0  0  0  0  0  0  0  0  0  0  0  0
  1  2  1  0
  2  3  2  0
  3  4  1  0
  3  5  1  0
  5  6  2  0
  6  7  1  0
  6  8  1  0
  8  9  1  0
  8 10  2  0
 10 11  1  0
 10  2  1  0
M  END
>  <target>  (854) 
-3.1

$$$$

     RDKit          3D

  8  8  0  0  0  0  0  0  0  0999 V2000
    3.0545   -0.4275    0.0247 Cl  0  0  0  0  0  0  0  0  0  0  0  0
    1.3534   -0.1672    0.0118 C   0  0  0  0  0  0  0  0  0  0  0  0
    0.8543    1.1352    0.0555 C   0  0  0  0  0  0  0  0  0  0  0  0
   -0.5245    1.3510    0.0452 C   0  0  0  0  0  0  0  0  0  0  0  0
   -1.3972    0.2632   -0.0087 C   0  0  0  0  0  0  0  0  0  0  0  0
   -0.8867   -1.0348   -0.0521 C   0  0  0  0  0  0  0  0  0  0  0  0
   -1.9674   -2.3725   -0.1185 Cl  0  0  0  0  0  0  0  0  0  0  0  0
    0.4884   -1.2579   -0.0421 C   0  0  0  0  0  0  0  0  0  0  0  0
  1  2  1  0
  2  3  2  0
  3  4  1  0
  4  5  2  0
  5  6  1  0
  6  7  1  0
  6  8  2  0
  8  2  1  0
M  END
>  <target>  (855) 
-3.04

$$$$

     RDKit          3D

 19 20  0  0  0  0  0  0  0  0999 V2000
   -4.6018    0.4645    2.9582 Cl  0  0  0  0  0  0  0  0  0  0  0  0
   -3.3520    0.1822    1.8113 C   0  0  0  0  0  0  0  0  0  0  0  0
   -2.5255   -0.9269    1.9452 C   0  0  0  0  0  0  0  0  0  0  0  0
   -1.5110   -1.1512    1.0110 C   0  0  0  0  0  0  0  0  0  0  0  0
   -1.3098   -0.2749   -0.0764 C   0  0  0  0  0  0  0  0  0  0  0  0
   -2.1498    0.8444   -0.1810 C   0  0  0  0  0  0  0  0  0  0  0  0
   -3.1670    1.0679    0.7545 C   0  0  0  0  0  0  0  0  0  0  0  0
   -0.1566   -0.5818   -1.0522 C   0  0  0  0  0  0  0  0  0  0  0  0
    1.1967   -0.1794   -0.4406 C   0  0  0  0  0  0  0  0  0  0  0  0
    2.2355   -1.1247   -0.3585 C   0  0  0  0  0  0  0  0  0  0  0  0
    3.4735   -0.7819    0.1915 C   0  0  0  0  0  0  0  0  0  0  0  0
    3.6859    0.5075    0.6700 C   0  0  0  0  0  0  0  0  0  0  0  0
    5.2092    0.9287    1.3485 Cl  0  0  0  0  0  0  0  0  0  0  0  0
    2.6702    1.4563    0.6044 C   0  0  0  0  0  0  0  0  0  0  0  0
    1.4317    1.1151    0.0537 C   0  0  0  0  0  0  0  0  0  0  0  0
   -0.3166   -0.1925   -2.5685 C   0  0  0  0  0  0  0  0  0  0  0  0
    0.9309   -1.0452   -3.5780 Cl  0  0  0  0  0  0  0  0  0  0  0  0
   -1.9151   -0.7350   -3.2179 Cl  0  0  0  0  0  0  0  0  0  0  0  0
   -0.1417    1.5632   -2.9161 Cl  0  0  0  0  0  0  0  0  0  0  0  0
  1  2  1  0
  2  3  2  0
  3  4  1  0
  4  5  2  0
  5  6  1  0
  6  7  2  0
  5  8  1  0
  8  9  1  0
  9 10  2  0
 10 11  1  0
 11 12  2  0
 12 13  1  0
 12 14  1  0
 14 15  2  0
  8 16  1  0
 16 17  1  0
 16 18  1  0
 16 19  1  0
  7  2  1  0
 15  9  1  0
M  END
>  <target>  (856) 
-7.15

$$$$

     RDKit          3D

  7  6  0  0  0  0  0  0  0  0999 V2000
   -1.2931   -0.3227   -1.1201 C   0  0  0  0  0  0  0  0  0  0  0  0
   -0.6780    0.4477    0.0503 C   0  0  0  0  0  0  0  0  0  0  0  0
   -1.5549    0.3130    1.2934 C   0  0  0  0  0  0  0  0  0  0  0  0
    0.7486   -0.0320    0.3468 C   0  0  0  0  0  0  0  0  0  0  0  0
    1.5775    0.2241   -0.7959 O   0  0  0  0  0  0  0  0  0  0  0  0
    2.8637   -0.1783   -0.6487 C   0  0  0  0  0  0  0  0  0  0  0  0
    3.3520   -0.7147    0.3325 O   0  0  0  0  0  0  0  0  0  0  0  0
  1  2  1  0
  2  3  1  0
  2  4  1  0
  4  5  1  0
  5  6  1  0
  6  7  2  0
M  END
>  <target>  (857) 
-1.01

$$$$

     RDKit          3D

  8  8  0  0  0  0  0  0  0  0999 V2000
   -0.0876   -0.8406   -0.6496 C   0  0  0  0  0  0  0  0  0  0  0  0
   -1.2683   -1.4523   -0.2212 C   0  0  0  0  0  0  0  0  0  0  0  0
   -2.2432   -0.7041    0.4366 C   0  0  0  0  0  0  0  0  0  0  0  0
   -2.0415    0.6565    0.6610 C   0  0  0  0  0  0  0  0  0  0  0  0
   -0.8613    1.2681    0.2323 C   0  0  0  0  0  0  0  0  0  0  0  0
    0.1279    0.5211   -0.4151 C   0  0  0  0  0  0  0  0  0  0  0  0
    1.6163    1.3404   -0.9590 S   0  0  0  0  0  0  0  0  0  0  0  0
    2.8553    0.3401   -0.0934 C   0  0  0  0  0  0  0  0  0  0  0  0
  1  2  2  0
  2  3  1  0
  3  4  2  0
  4  5  1  0
  5  6  2  0
  6  7  1  0
  7  8  1  0
  6  1  1  0
M  END
>  <target>  (858) 
-2.39

$$$$

     RDKit          3D

 23 25  0  0  0  0  0  0  0  0999 V2000
    0.7405   -2.5500   -1.9968 C   0  0  0  0  0  0  0  0  0  0  0  0
    1.4060   -1.9634   -0.7512 C   0  0  0  0  0  0  0  0  0  0  0  0
    0.9887   -0.5631   -0.5266 N   0  0  0  0  0  0  0  0  0  0  0  0
   -0.3556   -0.4154   -0.1061 C   0  0  0  0  0  0  0  0  0  0  0  0
   -1.0163   -1.5240    0.3258 N   0  0  0  0  0  0  0  0  0  0  0  0
   -2.3181   -1.4574    0.6646 C   0  0  0  0  0  0  0  0  0  0  0  0
   -2.9722   -2.7173    1.1444 C   0  0  0  0  0  0  0  0  0  0  0  0
   -3.0360   -0.2833    0.5694 C   0  0  0  0  0  0  0  0  0  0  0  0
   -2.3919    0.8752    0.1137 C   0  0  0  0  0  0  0  0  0  0  0  0
   -3.1906    2.1491    0.0608 C   0  0  0  0  0  0  0  0  0  0  0  0
   -2.8081    2.9866   -0.9447 F   0  0  0  0  0  0  0  0  0  0  0  0
   -3.0862    2.8719    1.2089 F   0  0  0  0  0  0  0  0  0  0  0  0
   -4.5241    1.9394   -0.1271 F   0  0  0  0  0  0  0  0  0  0  0  0
   -1.0181    0.8234   -0.2047 C   0  0  0  0  0  0  0  0  0  0  0  0
   -0.4014    1.9951   -0.6865 N   0  0  0  0  0  0  0  0  0  0  0  0
    0.9146    2.3708   -0.7144 C   0  0  0  0  0  0  0  0  0  0  0  0
    1.2020    3.4477   -1.2403 O   0  0  0  0  0  0  0  0  0  0  0  0
    1.9665    1.6167   -0.0170 C   0  0  0  0  0  0  0  0  0  0  0  0
    3.0189    2.3637    0.5419 C   0  0  0  0  0  0  0  0  0  0  0  0
    4.0734    1.7203    1.1719 C   0  0  0  0  0  0  0  0  0  0  0  0
    4.0455    0.3444    1.2075 C   0  0  0  0  0  0  0  0  0  0  0  0
    3.0545   -0.3963    0.6647 N   0  0  0  0  0  0  0  0  0  0  0  0
    2.0063    0.2278    0.0521 C   0  0  0  0  0  0  0  0  0  0  0  0
  1  2  1  0
  2  3  1  0
  3  4  1  0
  4  5  2  0
  5  6  1  0
  6  7  1  0
  6  8  2  0
  8  9  1  0
  9 10  1  0
 10 11  1  0
 10 12  1  0
 10 13  1  0
  9 14  2  0
 14 15  1  0
 15 16  1  0
 16 17  2  0
 16 18  1  0
 18 19  2  0
 19 20  1  0
 20 21  2  0
 21 22  1  0
 22 23  2  0
 14  4  1  0
 23  3  1  0
 23 18  1  0
M  END
>  <target>  (859) 
-4.207

$$$$

     RDKit          3D

  6  5  0  0  0  0  0  0  0  0999 V2000
   -3.1299   -0.1726    0.4736 C   0  0  0  0  0  0  0  0  0  0  0  0
   -1.8950    0.3999   -0.2036 C   0  0  0  0  0  0  0  0  0  0  0  0
   -0.6199   -0.2894    0.2813 C   0  0  0  0  0  0  0  0  0  0  0  0
    0.6199    0.2894   -0.4023 C   0  0  0  0  0  0  0  0  0  0  0  0
    1.8950   -0.3999    0.0827 C   0  0  0  0  0  0  0  0  0  0  0  0
    3.1299    0.1726   -0.5946 C   0  0  0  0  0  0  0  0  0  0  0  0
  1  2  1  0
  2  3  1  0
  3  4  1  0
  4  5  1  0
  5  6  1  0
M  END
>  <target>  (860) 
-3.84

$$$$

     RDKit          3D

 10 10  0  0  0  0  0  0  0  0999 V2000
    3.2347    0.1848    0.2342 C   0  0  0  0  0  0  0  0  0  0  0  0
    1.8342    0.4206    0.0779 O   0  0  0  0  0  0  0  0  0  0  0  0
    1.0550   -0.6248    0.4519 C   0  0  0  0  0  0  0  0  0  0  0  0
    1.4512   -1.6932    0.8886 O   0  0  0  0  0  0  0  0  0  0  0  0
   -0.3748   -0.3008    0.2598 C   0  0  0  0  0  0  0  0  0  0  0  0
   -0.8345    0.9209   -0.2398 C   0  0  0  0  0  0  0  0  0  0  0  0
   -2.2054    1.1299   -0.3841 C   0  0  0  0  0  0  0  0  0  0  0  0
   -3.0701    0.1084   -0.0234 C   0  0  0  0  0  0  0  0  0  0  0  0
   -2.6603   -1.0834    0.4622 N   0  0  0  0  0  0  0  0  0  0  0  0
   -1.3212   -1.2617    0.5931 C   0  0  0  0  0  0  0  0  0  0  0  0
  1  2  1  0
  2  3  1  0
  3  4  2  0
  3  5  1  0
  5  6  2  0
  6  7  1  0
  7  8  2  0
  8  9  1  0
  9 10  2  0
 10  5  1  0
M  END
>  <target>  (861) 
-0.46

$$$$

     RDKit          3D

 27 29  0  0  0  0  0  0  0  0999 V2000
   -5.8700    0.0965    0.3163 N   0  0  0  0  0  0  0  0  0  0  0  0
   -5.0103    0.6100   -1.0237 S   0  0  0  0  0  0  0  0  0  0  0  0
   -5.2839    2.0216   -1.1471 O   0  0  0  0  0  0  0  0  0  0  0  0
   -5.2714   -0.3186   -2.0931 O   0  0  0  0  0  0  0  0  0  0  0  0
   -3.3319    0.3968   -0.4784 C   0  0  0  0  0  0  0  0  0  0  0  0
   -2.6087    1.5440   -0.1283 C   0  0  0  0  0  0  0  0  0  0  0  0
   -1.2727    1.4214    0.2635 C   0  0  0  0  0  0  0  0  0  0  0  0
   -0.6157    0.1926    0.2924 C   0  0  0  0  0  0  0  0  0  0  0  0
    0.6929    0.0244    0.7631 N   0  0  0  0  0  0  0  0  0  0  0  0
    1.5737    1.1818    0.7126 C   0  0  0  0  0  0  0  0  0  0  0  0
    2.9490    0.8425    1.3292 C   0  0  0  0  0  0  0  0  0  0  0  0
    3.7289   -0.1655    0.5143 C   0  0  0  0  0  0  0  0  0  0  0  0
    4.3735    0.2238   -0.6681 C   0  0  0  0  0  0  0  0  0  0  0  0
    5.0652   -0.7137   -1.4364 C   0  0  0  0  0  0  0  0  0  0  0  0
    5.1199   -2.0457   -1.0313 C   0  0  0  0  0  0  0  0  0  0  0  0
    4.4881   -2.4415    0.1459 C   0  0  0  0  0  0  0  0  0  0  0  0
    3.7962   -1.5067    0.9172 C   0  0  0  0  0  0  0  0  0  0  0  0
    0.9529    2.2198    1.5080 N   0  0  0  0  0  0  0  0  0  0  0  0
   -0.3987    2.8644    0.7623 S   0  0  0  0  0  0  0  0  0  0  0  0
   -1.1688    3.5150    1.7979 O   0  0  0  0  0  0  0  0  0  0  0  0
    0.0264    3.5465   -0.4385 O   0  0  0  0  0  0  0  0  0  0  0  0
   -1.3706   -0.9457   -0.0251 C   0  0  0  0  0  0  0  0  0  0  0  0
   -2.7278   -0.8721   -0.4199 C   0  0  0  0  0  0  0  0  0  0  0  0
   -3.4415   -2.1586   -0.7740 C   0  0  0  0  0  0  0  0  0  0  0  0
   -2.8016   -3.2537   -0.2628 F   0  0  0  0  0  0  0  0  0  0  0  0
   -3.4988   -2.3768   -2.1125 F   0  0  0  0  0  0  0  0  0  0  0  0
   -4.7100   -2.2476   -0.2935 F   0  0  0  0  0  0  0  0  0  0  0  0
  1  2  1  0
  2  3  2  0
  2  4  2  0
  2  5  1  0
  5  6  2  0
  6  7  1  0
  7  8  2  0
  8  9  1  0
  9 10  1  0
 10 11  1  0
 11 12  1  0
 12 13  2  0
 13 14  1  0
 14 15  2  0
 15 16  1  0
 16 17  2  0
 10 18  1  0
 18 19  1  0
 19 20  2  0
 19 21  2  0
  8 22  1  0
 22 23  2  0
 23 24  1  0
 24 25  1  0
 24 26  1  0
 24 27  1  0
 17 12  1  0
 19  7  1  0
 23  5  1  0
M  END
>  <target>  (862) 
-3.59

$$$$

     RDKit          3D

 18 19  0  0  0  0  0  0  0  0999 V2000
    5.2504    0.5287    0.1129 Cl  0  0  0  0  0  0  0  0  0  0  0  0
    3.5382    0.3235    0.0213 C   0  0  0  0  0  0  0  0  0  0  0  0
    2.7486    1.0280    0.9331 C   0  0  0  0  0  0  0  0  0  0  0  0
    1.3568    0.9019    0.9037 C   0  0  0  0  0  0  0  0  0  0  0  0
    0.7336    0.0674   -0.0360 C   0  0  0  0  0  0  0  0  0  0  0  0
    1.5360   -0.6341   -0.9499 C   0  0  0  0  0  0  0  0  0  0  0  0
    2.9303   -0.5095   -0.9227 C   0  0  0  0  0  0  0  0  0  0  0  0
    3.8379   -1.4096   -2.0854 Cl  0  0  0  0  0  0  0  0  0  0  0  0
   -0.7304   -0.0628   -0.0703 C   0  0  0  0  0  0  0  0  0  0  0  0
   -1.4555    0.7714   -0.9358 C   0  0  0  0  0  0  0  0  0  0  0  0
   -2.8487    0.6969   -1.0130 C   0  0  0  0  0  0  0  0  0  0  0  0
   -3.6307    1.7775   -2.1150 Cl  0  0  0  0  0  0  0  0  0  0  0  0
   -3.5541   -0.2196   -0.2220 C   0  0  0  0  0  0  0  0  0  0  0  0
   -5.2877   -0.2994   -0.3285 Cl  0  0  0  0  0  0  0  0  0  0  0  0
   -2.8472   -1.0664    0.6519 C   0  0  0  0  0  0  0  0  0  0  0  0
   -3.7083   -2.2117    1.6426 Cl  0  0  0  0  0  0  0  0  0  0  0  0
   -1.4404   -0.9875    0.7261 C   0  0  0  0  0  0  0  0  0  0  0  0
   -0.5513   -2.0332    1.7994 Cl  0  0  0  0  0  0  0  0  0  0  0  0
  1  2  1  0
  2  3  2  0
  3  4  1  0
  4  5  2  0
  5  6  1  0
  6  7  2  0
  7  8  1  0
  5  9  1  0
  9 10  2  0
 10 11  1  0
 11 12  1  0
 11 13  2  0
 13 14  1  0
 13 15  1  0
 15 16  1  0
 15 17  2  0
 17 18  1  0
  7  2  1  0
 17  9  1  0
M  END
>  <target>  (863) 
-7.82

$$$$

     RDKit          3D

 18 19  0  0  0  0  0  0  0  0999 V2000
   -2.9044   -0.0369    1.6630 C   0  0  0  0  0  0  0  0  0  0  0  0
   -2.2023   -0.0434    0.3103 C   0  0  0  0  0  0  0  0  0  0  0  0
   -1.9525    1.2986   -0.0838 O   0  0  0  0  0  0  0  0  0  0  0  0
   -0.6086    1.4774   -0.2405 C   0  0  0  0  0  0  0  0  0  0  0  0
   -0.1776    2.5564   -0.6184 O   0  0  0  0  0  0  0  0  0  0  0  0
    0.0837    0.3379    0.0611 N   0  0  0  0  0  0  0  0  0  0  0  0
   -0.8109   -0.6344    0.4281 C   0  0  0  0  0  0  0  0  0  0  0  0
   -0.5976   -1.7772    0.8150 O   0  0  0  0  0  0  0  0  0  0  0  0
    1.5079    0.1848    0.0123 C   0  0  0  0  0  0  0  0  0  0  0  0
    2.3656    1.2856   -0.1620 C   0  0  0  0  0  0  0  0  0  0  0  0
    3.7568    1.1281   -0.2082 C   0  0  0  0  0  0  0  0  0  0  0  0
    4.7642    2.5094   -0.4147 Cl  0  0  0  0  0  0  0  0  0  0  0  0
    4.3364   -0.1255   -0.0851 C   0  0  0  0  0  0  0  0  0  0  0  0
    3.5090   -1.2249    0.0855 C   0  0  0  0  0  0  0  0  0  0  0  0
    4.2046   -2.7934    0.2330 Cl  0  0  0  0  0  0  0  0  0  0  0  0
    2.1171   -1.0770    0.1345 C   0  0  0  0  0  0  0  0  0  0  0  0
   -2.9966   -0.7887   -0.7371 C   0  0  0  0  0  0  0  0  0  0  0  0
   -3.4910   -0.2826   -1.8766 C   0  0  0  0  0  0  0  0  0  0  0  0
  1  2  1  0
  2  3  1  0
  3  4  1  0
  4  5  2  0
  4  6  1  0
  6  7  1  0
  7  8  2  0
  6  9  1  0
  9 10  2  0
 10 11  1  0
 11 12  1  0
 11 13  2  0
 13 14  1  0
 14 15  1  0
 14 16  2  0
  2 17  1  0
 17 18  2  0
  7  2  1  0
 16  9  1  0
M  END
>  <target>  (864) 
-4.925

$$$$

     RDKit          3D

 16 16  0  0  0  0  0  0  0  0999 V2000
    4.5308   -0.1779   -1.1595 C   0  0  0  0  0  0  0  0  0  0  0  0
    3.5477   -0.4737   -0.0378 C   0  0  0  0  0  0  0  0  0  0  0  0
    2.2372   -0.7404   -0.6049 N   0  0  0  0  0  0  0  0  0  0  0  0
    1.2276   -0.9608    0.3232 C   0  0  0  0  0  0  0  0  0  0  0  0
    1.4922   -1.5435    1.4770 N   0  0  0  0  0  0  0  0  0  0  0  0
    0.4281   -1.6880    2.2483 C   0  0  0  0  0  0  0  0  0  0  0  0
    0.6971   -2.4286    3.7654 Cl  0  0  0  0  0  0  0  0  0  0  0  0
   -0.8182   -1.3118    2.0013 N   0  0  0  0  0  0  0  0  0  0  0  0
   -0.9697   -0.7442    0.8218 C   0  0  0  0  0  0  0  0  0  0  0  0
   -2.2617   -0.3433    0.5246 N   0  0  0  0  0  0  0  0  0  0  0  0
   -2.4770    0.8291   -0.3411 C   0  0  0  0  0  0  0  0  0  0  0  0
   -2.2876    0.4478   -1.8188 C   0  0  0  0  0  0  0  0  0  0  0  0
   -3.9517    1.2478   -0.1530 C   0  0  0  0  0  0  0  0  0  0  0  0
   -1.6247    2.0018    0.0054 C   0  0  0  0  0  0  0  0  0  0  0  0
   -0.9739    2.9231    0.2849 N   0  0  0  0  0  0  0  0  0  0  0  0
    0.0178   -0.5492   -0.0413 N   0  0  0  0  0  0  0  0  0  0  0  0
  1  2  1  0
  2  3  1  0
  3  4  1  0
  4  5  2  0
  5  6  1  0
  6  7  1  0
  6  8  2  0
  8  9  1  0
  9 10  1  0
 10 11  1  0
 11 12  1  0
 11 13  1  0
 11 14  1  0
 14 15  3  0
  9 16  2  0
 16  4  1  0
M  END
>  <target>  (865) 
-3.15

$$$$

     RDKit          3D

 18 21  0  0  0  0  0  0  0  0999 V2000
    3.2608   -1.9186    0.0402 C   0  0  0  0  0  0  0  0  0  0  0  0
    3.7198   -0.6506   -0.2347 C   0  0  0  0  0  0  0  0  0  0  0  0
    2.8046    0.3957   -0.3386 C   0  0  0  0  0  0  0  0  0  0  0  0
    1.3991    0.2268   -0.1743 C   0  0  0  0  0  0  0  0  0  0  0  0
    0.9252   -1.0823    0.1096 C   0  0  0  0  0  0  0  0  0  0  0  0
    1.8923   -2.1243    0.2078 C   0  0  0  0  0  0  0  0  0  0  0  0
   -0.4802   -1.3143    0.2854 C   0  0  0  0  0  0  0  0  0  0  0  0
   -1.0142   -2.6042    0.5715 C   0  0  0  0  0  0  0  0  0  0  0  0
   -2.3755   -2.8490    0.7454 C   0  0  0  0  0  0  0  0  0  0  0  0
   -3.2641   -1.8035    0.6391 C   0  0  0  0  0  0  0  0  0  0  0  0
   -2.7803   -0.5263    0.3601 C   0  0  0  0  0  0  0  0  0  0  0  0
   -1.3976   -0.2349    0.1756 C   0  0  0  0  0  0  0  0  0  0  0  0
   -0.9189    1.0875   -0.1111 C   0  0  0  0  0  0  0  0  0  0  0  0
   -1.7903    2.2085   -0.2328 C   0  0  0  0  0  0  0  0  0  0  0  0
   -1.3443    3.4996   -0.5107 C   0  0  0  0  0  0  0  0  0  0  0  0
    0.0033    3.7221   -0.6793 C   0  0  0  0  0  0  0  0  0  0  0  0
    0.8880    2.6506   -0.5679 C   0  0  0  0  0  0  0  0  0  0  0  0
    0.4724    1.3172   -0.2852 C   0  0  0  0  0  0  0  0  0  0  0  0
  1  2  2  0
  2  3  1  0
  3  4  2  0
  4  5  1  0
  5  6  2  0
  5  7  1  0
  7  8  2  0
  8  9  1  0
  9 10  2  0
 10 11  1  0
 11 12  2  0
 12 13  1  0
 13 14  2  0
 14 15  1  0
 15 16  2  0
 16 17  1  0
 17 18  2  0
  6  1  1  0
 18  4  1  0
 12  7  1  0
 18 13  1  0
M  END
>  <target>  (866) 
-6.726

$$$$

     RDKit          3D

 20 21  0  0  0  0  0  0  0  0999 V2000
    0.8256   -1.9910   -2.8259 C   0  0  0  0  0  0  0  0  0  0  0  0
    1.4095   -1.2522   -1.6630 C   0  0  0  0  0  0  0  0  0  0  0  0
    0.7638   -0.8033   -0.5656 C   0  0  0  0  0  0  0  0  0  0  0  0
   -0.6702   -0.9961   -0.3273 C   0  0  0  0  0  0  0  0  0  0  0  0
   -1.2303   -2.1919   -0.0459 C   0  0  0  0  0  0  0  0  0  0  0  0
   -0.5393   -3.5116    0.0956 C   0  0  0  0  0  0  0  0  0  0  0  0
   -1.5860    0.1676   -0.3428 C   0  0  0  0  0  0  0  0  0  0  0  0
   -2.0504    0.6827   -1.5595 C   0  0  0  0  0  0  0  0  0  0  0  0
   -2.8942    1.7945   -1.5739 C   0  0  0  0  0  0  0  0  0  0  0  0
   -3.2685    2.3912   -0.3751 C   0  0  0  0  0  0  0  0  0  0  0  0
   -4.0921    3.4762   -0.4367 O   0  0  0  0  0  0  0  0  0  0  0  0
   -2.8127    1.8965    0.8430 C   0  0  0  0  0  0  0  0  0  0  0  0
   -1.9691    0.7836    0.8576 C   0  0  0  0  0  0  0  0  0  0  0  0
    1.5793   -0.0395    0.4064 C   0  0  0  0  0  0  0  0  0  0  0  0
    1.8599    1.3167    0.1846 C   0  0  0  0  0  0  0  0  0  0  0  0
    2.6077    2.0448    1.1126 C   0  0  0  0  0  0  0  0  0  0  0  0
    3.0707    1.4123    2.2624 C   0  0  0  0  0  0  0  0  0  0  0  0
    3.8028    2.0845    3.1959 O   0  0  0  0  0  0  0  0  0  0  0  0
    2.7972    0.0698    2.4989 C   0  0  0  0  0  0  0  0  0  0  0  0
    2.0491   -0.6577    1.5719 C   0  0  0  0  0  0  0  0  0  0  0  0
  1  2  1  0
  2  3  2  3
  3  4  1  0
  4  5  2  3
  5  6  1  0
  4  7  1  0
  7  8  2  0
  8  9  1  0
  9 10  2  0
 10 11  1  0
 10 12  1  0
 12 13  2  0
  3 14  1  0
 14 15  2  0
 15 16  1  0
 16 17  2  0
 17 18  1  0
 17 19  1  0
 19 20  2  0
 13  7  1  0
 20 14  1  0
M  END
>  <target>  (867) 
-4.95

$$$$

     RDKit          3D

 28 28  0  0  0  0  0  0  0  0999 V2000
   -7.3349    1.2064    1.0144 C   0  0  0  0  0  0  0  0  0  0  0  0
   -5.8510    0.9074    0.8648 C   0  0  0  0  0  0  0  0  0  0  0  0
   -5.6030   -0.1653   -0.1963 C   0  0  0  0  0  0  0  0  0  0  0  0
   -4.1158   -0.4173   -0.4719 C   0  0  0  0  0  0  0  0  0  0  0  0
   -3.2815   -0.9160    0.7301 C   0  0  0  0  0  0  0  0  0  0  0  0
   -3.8404   -2.1850    1.4038 C   0  0  0  0  0  0  0  0  0  0  0  0
   -3.9578   -3.4033    0.4983 C   0  0  0  0  0  0  0  0  0  0  0  0
   -1.8110   -1.1171    0.3131 C   0  0  0  0  0  0  0  0  0  0  0  0
   -1.2352    0.1169   -0.1473 O   0  0  0  0  0  0  0  0  0  0  0  0
   -0.7090    0.9143    0.8127 C   0  0  0  0  0  0  0  0  0  0  0  0
   -0.7140    0.7190    2.0160 O   0  0  0  0  0  0  0  0  0  0  0  0
   -0.2156    2.1572    0.1888 C   0  0  0  0  0  0  0  0  0  0  0  0
   -0.5923    3.3659    0.7937 C   0  0  0  0  0  0  0  0  0  0  0  0
   -0.2185    4.5837    0.2227 C   0  0  0  0  0  0  0  0  0  0  0  0
    0.5313    4.6024   -0.9526 C   0  0  0  0  0  0  0  0  0  0  0  0
    0.9260    3.4034   -1.5491 C   0  0  0  0  0  0  0  0  0  0  0  0
    0.5704    2.1755   -0.9704 C   0  0  0  0  0  0  0  0  0  0  0  0
    1.0854    0.9544   -1.6209 C   0  0  0  0  0  0  0  0  0  0  0  0
    1.1188    0.7961   -2.8292 O   0  0  0  0  0  0  0  0  0  0  0  0
    1.5948    0.1299   -0.6753 O   0  0  0  0  0  0  0  0  0  0  0  0
    2.1918   -1.0826   -1.1588 C   0  0  0  0  0  0  0  0  0  0  0  0
    3.6690   -0.8669   -1.5406 C   0  0  0  0  0  0  0  0  0  0  0  0
    4.2672   -2.1999   -2.0309 C   0  0  0  0  0  0  0  0  0  0  0  0
    5.7035   -2.0882   -2.5209 C   0  0  0  0  0  0  0  0  0  0  0  0
    4.4767   -0.1807   -0.4136 C   0  0  0  0  0  0  0  0  0  0  0  0
    4.5807   -0.9838    0.8874 C   0  0  0  0  0  0  0  0  0  0  0  0
    5.4593   -0.3055    1.9431 C   0  0  0  0  0  0  0  0  0  0  0  0
    4.8810    1.0000    2.4673 C   0  0  0  0  0  0  0  0  0  0  0  0
  1  2  1  0
  2  3  1  0
  3  4  1  0
  4  5  1  0
  5  6  1  0
  6  7  1  0
  5  8  1  0
  8  9  1  0
  9 10  1  0
 10 11  2  0
 10 12  1  0
 12 13  2  0
 13 14  1  0
 14 15  2  0
 15 16  1  0
 16 17  2  0
 17 18  1  0
 18 19  2  0
 18 20  1  0
 20 21  1  0
 21 22  1  0
 22 23  1  0
 23 24  1  0
 22 25  1  0
 25 26  1  0
 26 27  1  0
 27 28  1  0
 17 12  1  0
M  END
>  <target>  (868) 
-6.96

$$$$

     RDKit          3D

  8  8  0  0  0  0  0  0  0  0999 V2000
   -2.4600   -0.0978   -0.4186 C   0  0  0  0  0  0  0  0  0  0  0  0
   -1.5152   -0.4658    0.7145 C   0  0  0  0  0  0  0  0  0  0  0  0
   -0.0764   -0.2373    0.3330 C   0  0  0  0  0  0  0  0  0  0  0  0
    0.5136    1.0121    0.5107 C   0  0  0  0  0  0  0  0  0  0  0  0
    1.8403    1.1894    0.1281 C   0  0  0  0  0  0  0  0  0  0  0  0
    2.5383    0.1222   -0.4227 C   0  0  0  0  0  0  0  0  0  0  0  0
    1.8759   -1.0842   -0.5700 C   0  0  0  0  0  0  0  0  0  0  0  0
    0.5897   -1.2856   -0.2085 N   0  0  0  0  0  0  0  0  0  0  0  0
  1  2  1  0
  2  3  1  0
  3  4  2  0
  4  5  1  0
  5  6  2  0
  6  7  1  0
  7  8  2  0
  8  3  1  0
M  END
>  <target>  (869) 
0.51

$$$$

     RDKit          3D

 13 12  0  0  0  0  0  0  0  0999 V2000
   -2.0125    2.0074    0.1456 C   0  0  0  0  0  0  0  0  0  0  0  0
   -1.2227    1.5389   -0.9283 O   0  0  0  0  0  0  0  0  0  0  0  0
   -0.6120    0.0543   -0.8457 P   0  0  0  0  0  0  0  0  0  0  0  0
    0.0365   -0.4266   -2.1029 O   0  0  0  0  0  0  0  0  0  0  0  0
   -1.8234   -0.8500   -0.2989 O   0  0  0  0  0  0  0  0  0  0  0  0
   -1.5827   -2.2391   -0.2011 C   0  0  0  0  0  0  0  0  0  0  0  0
    0.3889    0.1367    0.4096 O   0  0  0  0  0  0  0  0  0  0  0  0
    1.6863    0.6504    0.1357 C   0  0  0  0  0  0  0  0  0  0  0  0
    1.8713    2.3118    1.1860 Br  0  0  0  0  0  0  0  0  0  0  0  0
    2.7943   -0.3789    0.4521 C   0  0  0  0  0  0  0  0  0  0  0  0
    2.8690   -0.8288    2.1857 Cl  0  0  0  0  0  0  0  0  0  0  0  0
    2.5421   -1.8962   -0.4818 Cl  0  0  0  0  0  0  0  0  0  0  0  0
    4.5595    0.3054   -0.0833 Br  0  0  0  0  0  0  0  0  0  0  0  0
  1  2  1  0
  2  3  1  0
  3  4  2  0
  3  5  1  0
  5  6  1  0
  3  7  1  0
  7  8  1  0
  8  9  1  0
  8 10  1  0
 10 11  1  0
 10 12  1  0
 10 13  1  0
M  END
>  <target>  (870) 
-2.28

$$$$

     RDKit          3D

 12 13  0  0  0  0  0  0  0  0999 V2000
    3.5099    0.4826    0.2149 C   0  0  0  0  0  0  0  0  0  0  0  0
    2.8554   -0.4242    1.0446 C   0  0  0  0  0  0  0  0  0  0  0  0
    1.4759   -0.6136    0.9238 C   0  0  0  0  0  0  0  0  0  0  0  0
    0.7266    0.0999   -0.0267 C   0  0  0  0  0  0  0  0  0  0  0  0
    1.4069    1.0100   -0.8530 C   0  0  0  0  0  0  0  0  0  0  0  0
    2.7865    1.2000   -0.7344 C   0  0  0  0  0  0  0  0  0  0  0  0
   -0.7266   -0.0999   -0.1528 C   0  0  0  0  0  0  0  0  0  0  0  0
   -1.6153    0.9863   -0.0879 C   0  0  0  0  0  0  0  0  0  0  0  0
   -2.9950    0.7975   -0.2070 C   0  0  0  0  0  0  0  0  0  0  0  0
   -3.5099   -0.4826   -0.3944 C   0  0  0  0  0  0  0  0  0  0  0  0
   -2.6469   -1.5733   -0.4622 C   0  0  0  0  0  0  0  0  0  0  0  0
   -1.2675   -1.3827   -0.3418 C   0  0  0  0  0  0  0  0  0  0  0  0
  1  2  2  0
  2  3  1  0
  3  4  2  0
  4  5  1  0
  5  6  2  0
  4  7  1  0
  7  8  2  0
  8  9  1  0
  9 10  2  0
 10 11  1  0
 11 12  2  0
  6  1  1  0
 12  7  1  0
M  END
>  <target>  (871) 
-4.345

$$$$

     RDKit          3D

 18 19  0  0  0  0  0  0  0  0999 V2000
   -5.2536    0.1864    0.4852 Cl  0  0  0  0  0  0  0  0  0  0  0  0
   -3.5422    0.1257    0.3271 C   0  0  0  0  0  0  0  0  0  0  0  0
   -2.9291   -1.0530   -0.0818 C   0  0  0  0  0  0  0  0  0  0  0  0
   -1.5381   -1.1010   -0.2099 C   0  0  0  0  0  0  0  0  0  0  0  0
   -0.8418   -2.6021   -0.7238 Cl  0  0  0  0  0  0  0  0  0  0  0  0
   -0.7365    0.0261    0.0680 C   0  0  0  0  0  0  0  0  0  0  0  0
   -1.3925    1.2050    0.4805 C   0  0  0  0  0  0  0  0  0  0  0  0
   -0.5103    2.6501    0.8487 Cl  0  0  0  0  0  0  0  0  0  0  0  0
   -2.7833    1.2557    0.6094 C   0  0  0  0  0  0  0  0  0  0  0  0
    0.7365   -0.0261   -0.0680 C   0  0  0  0  0  0  0  0  0  0  0  0
    1.3715    0.2982   -1.2853 C   0  0  0  0  0  0  0  0  0  0  0  0
    0.4625    0.7737   -2.6817 Cl  0  0  0  0  0  0  0  0  0  0  0  0
    2.7623    0.2493   -1.4151 C   0  0  0  0  0  0  0  0  0  0  0  0
    3.5422   -0.1257   -0.3271 C   0  0  0  0  0  0  0  0  0  0  0  0
    5.2536   -0.1864   -0.4852 Cl  0  0  0  0  0  0  0  0  0  0  0  0
    2.9501   -0.4519    0.8875 C   0  0  0  0  0  0  0  0  0  0  0  0
    1.5591   -0.4022    1.0146 C   0  0  0  0  0  0  0  0  0  0  0  0
    0.8897   -0.8216    2.5568 Cl  0  0  0  0  0  0  0  0  0  0  0  0
  1  2  1  0
  2  3  2  0
  3  4  1  0
  4  5  1  0
  4  6  2  0
  6  7  1  0
  7  8  1  0
  7  9  2  0
  6 10  1  0
 10 11  2  0
 11 12  1  0
 11 13  1  0
 13 14  2  0
 14 15  1  0
 14 16  1  0
 16 17  2  0
 17 18  1  0
  9  2  1  0
 17 10  1  0
M  END
>  <target>  (872) 
-8.71

$$$$

     RDKit          3D

 15 15  0  0  0  0  0  0  0  0999 V2000
   -1.7764   -3.0236    0.7651 C   0  0  0  0  0  0  0  0  0  0  0  0
   -2.0069   -1.5943    0.9117 N   0  0  0  0  0  0  0  0  0  0  0  0
   -3.3524   -1.1205    0.6242 C   0  0  0  0  0  0  0  0  0  0  0  0
   -0.9903   -0.7924    0.3731 C   0  0  0  0  0  0  0  0  0  0  0  0
   -1.2648    0.4719    0.0772 N   0  0  0  0  0  0  0  0  0  0  0  0
   -0.2802    1.2121   -0.4171 C   0  0  0  0  0  0  0  0  0  0  0  0
    0.9424    0.7348   -0.6153 N   0  0  0  0  0  0  0  0  0  0  0  0
    1.1643   -0.5323   -0.2879 C   0  0  0  0  0  0  0  0  0  0  0  0
    0.2174   -1.3181    0.2097 N   0  0  0  0  0  0  0  0  0  0  0  0
    2.4410   -1.0698   -0.4980 N   0  0  0  0  0  0  0  0  0  0  0  0
    3.4987   -0.0802   -0.6253 C   0  0  0  0  0  0  0  0  0  0  0  0
    2.7363   -2.2451    0.3065 C   0  0  0  0  0  0  0  0  0  0  0  0
   -0.5500    2.5422   -0.7654 N   0  0  0  0  0  0  0  0  0  0  0  0
    0.6285    3.3861   -0.8819 C   0  0  0  0  0  0  0  0  0  0  0  0
   -1.7033    3.1164   -0.0904 C   0  0  0  0  0  0  0  0  0  0  0  0
  1  2  1  0
  2  3  1  0
  2  4  1  0
  4  5  2  0
  5  6  1  0
  6  7  2  0
  7  8  1  0
  8  9  2  0
  8 10  1  0
 10 11  1  0
 10 12  1  0
  6 13  1  0
 13 14  1  0
 13 15  1  0
  9  4  1  0
M  END
>  <target>  (873) 
-3.364

$$$$

     RDKit          3D

  8  7  0  0  0  0  0  0  0  0999 V2000
    1.8189   -0.4733    1.0670 C   0  0  0  0  0  0  0  0  0  0  0  0
    1.2103    0.6143    0.1824 C   0  0  0  0  0  0  0  0  0  0  0  0
    2.3040    1.2115   -0.7114 C   0  0  0  0  0  0  0  0  0  0  0  0
    0.0463    0.1114   -0.7019 C   0  0  0  0  0  0  0  0  0  0  0  0
   -1.2018   -0.4543    0.0143 C   0  0  0  0  0  0  0  0  0  0  0  0
   -1.7501    0.4934    1.0813 C   0  0  0  0  0  0  0  0  0  0  0  0
   -2.2961   -0.7496   -1.0197 C   0  0  0  0  0  0  0  0  0  0  0  0
   -0.8837   -1.6901    0.6547 O   0  0  0  0  0  0  0  0  0  0  0  0
  1  2  1  0
  2  3  1  0
  2  4  1  0
  4  5  1  0
  5  6  1  0
  5  7  1  0
  5  8  1  0
M  END
>  <target>  (874) 
-0.92

$$$$

     RDKit          3D

 15 16  0  0  0  0  0  0  0  0999 V2000
    4.6456    0.7227   -0.2143 O   0  0  0  0  0  0  0  0  0  0  0  0
    3.4313    0.5567   -0.1655 C   0  0  0  0  0  0  0  0  0  0  0  0
    2.6946    0.3746   -1.2940 N   0  0  0  0  0  0  0  0  0  0  0  0
    1.5113   -0.3138   -1.3162 C   0  0  0  0  0  0  0  0  0  0  0  0
    1.1672   -0.9045   -2.3364 O   0  0  0  0  0  0  0  0  0  0  0  0
    0.6752   -0.2369   -0.0369 C   0  0  0  0  0  0  0  0  0  0  0  0
   -0.2917   -1.4432    0.0223 C   0  0  0  0  0  0  0  0  0  0  0  0
   -1.4999   -1.2868    0.9500 C   0  0  0  0  0  0  0  0  0  0  0  0
   -2.6973   -0.6384    0.2598 C   0  0  0  0  0  0  0  0  0  0  0  0
   -2.5535    0.8547   -0.0058 C   0  0  0  0  0  0  0  0  0  0  0  0
   -1.3190    1.2506   -0.8117 C   0  0  0  0  0  0  0  0  0  0  0  0
   -0.0216    1.1486   -0.0066 C   0  0  0  0  0  0  0  0  0  0  0  0
    1.6279   -0.2805    1.1592 C   0  0  0  0  0  0  0  0  0  0  0  0
    1.4005   -0.8802    2.2062 O   0  0  0  0  0  0  0  0  0  0  0  0
    2.7781    0.4472    1.0217 N   0  0  0  0  0  0  0  0  0  0  0  0
  1  2  2  0
  2  3  1  0
  3  4  1  0
  4  5  2  0
  4  6  1  0
  6  7  1  0
  7  8  1  0
  8  9  1  0
  9 10  1  0
 10 11  1  0
 11 12  1  0
  6 13  1  0
 13 14  2  0
 13 15  1  0
 12  6  1  0
 15  2  1  0
M  END
>  <target>  (875) 
-3.168

$$$$

     RDKit          3D

 12 12  0  0  0  0  0  0  0  0999 V2000
    2.9752    0.2532   -1.6005 O   0  0  0  0  0  0  0  0  0  0  0  0
    1.7200   -0.4198   -1.6759 C   0  0  0  0  0  0  0  0  0  0  0  0
    0.9697   -0.2871   -0.3557 C   0  0  0  0  0  0  0  0  0  0  0  0
   -0.2772   -1.0010   -0.3891 O   0  0  0  0  0  0  0  0  0  0  0  0
   -1.2785   -0.1412    0.2011 C   0  0  0  0  0  0  0  0  0  0  0  0
   -2.0562    0.3783   -0.8783 O   0  0  0  0  0  0  0  0  0  0  0  0
   -2.1744   -0.9766    1.1250 C   0  0  0  0  0  0  0  0  0  0  0  0
   -2.8521   -1.9676    0.3304 O   0  0  0  0  0  0  0  0  0  0  0  0
   -0.5398    1.0049    0.9055 C   0  0  0  0  0  0  0  0  0  0  0  0
   -0.0738    0.6520    2.2154 O   0  0  0  0  0  0  0  0  0  0  0  0
    0.6508    1.1704   -0.0216 C   0  0  0  0  0  0  0  0  0  0  0  0
    1.7307    1.8386    0.6265 O   0  0  0  0  0  0  0  0  0  0  0  0
  1  2  1  0
  2  3  1  0
  3  4  1  0
  4  5  1  0
  5  6  1  0
  5  7  1  0
  7  8  1  0
  5  9  1  0
  9 10  1  0
  9 11  1  0
 11 12  1  0
 11  3  1  0
M  END
>  <target>  (876) 
0.64

$$$$

     RDKit          3D

  9  9  0  0  0  0  0  0  0  0999 V2000
    2.6217   -0.9303   -0.0686 C   0  0  0  0  0  0  0  0  0  0  0  0
    1.2806   -0.2592   -0.0579 C   0  0  0  0  0  0  0  0  0  0  0  0
    0.1037   -1.0214   -0.0639 C   0  0  0  0  0  0  0  0  0  0  0  0
   -1.1552   -0.4033   -0.0297 C   0  0  0  0  0  0  0  0  0  0  0  0
   -2.4049   -1.2332   -0.0108 C   0  0  0  0  0  0  0  0  0  0  0  0
   -1.2296    0.9929    0.0469 C   0  0  0  0  0  0  0  0  0  0  0  0
   -0.0595    1.7469    0.0677 C   0  0  0  0  0  0  0  0  0  0  0  0
   -0.0946    3.1088    0.1423 O   0  0  0  0  0  0  0  0  0  0  0  0
    1.1878    1.1346    0.0188 C   0  0  0  0  0  0  0  0  0  0  0  0
  1  2  1  0
  2  3  2  0
  3  4  1  0
  4  5  1  0
  4  6  2  0
  6  7  1  0
  7  8  1  0
  7  9  2  0
  9  2  1  0
M  END
>  <target>  (877) 
-1.4

$$$$

     RDKit          3D

 16 16  0  0  0  0  0  0  0  0999 V2000
   -6.0137   -1.7586   -1.0200 Cl  0  0  0  0  0  0  0  0  0  0  0  0
   -6.0074   -1.2593    0.6829 C   0  0  0  0  0  0  0  0  0  0  0  0
   -4.6507   -0.8569    1.0533 C   0  0  0  0  0  0  0  0  0  0  0  0
   -3.5345   -0.5270    1.3541 C   0  0  0  0  0  0  0  0  0  0  0  0
   -2.1661   -0.1271    1.7071 C   0  0  0  0  0  0  0  0  0  0  0  0
   -1.3336   -0.2832    0.5556 O   0  0  0  0  0  0  0  0  0  0  0  0
   -0.0381    0.0607    0.7711 C   0  0  0  0  0  0  0  0  0  0  0  0
    0.3891    0.4659    1.8406 O   0  0  0  0  0  0  0  0  0  0  0  0
    0.6477   -0.1312   -0.3944 N   0  0  0  0  0  0  0  0  0  0  0  0
    2.0113    0.0885   -0.6541 C   0  0  0  0  0  0  0  0  0  0  0  0
    2.9158    0.5634    0.2997 C   0  0  0  0  0  0  0  0  0  0  0  0
    4.2609    0.7582   -0.0317 C   0  0  0  0  0  0  0  0  0  0  0  0
    4.7123    0.4796   -1.3198 C   0  0  0  0  0  0  0  0  0  0  0  0
    3.8147    0.0066   -2.2722 C   0  0  0  0  0  0  0  0  0  0  0  0
    4.3659   -0.3396   -3.8658 Cl  0  0  0  0  0  0  0  0  0  0  0  0
    2.4714   -0.1895   -1.9469 C   0  0  0  0  0  0  0  0  0  0  0  0
  1  2  1  0
  2  3  1  0
  3  4  3  0
  4  5  1  0
  5  6  1  0
  6  7  1  0
  7  8  2  0
  7  9  1  0
  9 10  1  0
 10 11  2  0
 11 12  1  0
 12 13  2  0
 13 14  1  0
 14 15  1  0
 14 16  2  0
 16 10  1  0
M  END
>  <target>  (878) 
-4.37

$$$$

     RDKit          3D

 11 11  0  0  0  0  0  0  0  0999 V2000
   -3.4411    0.1378    0.7647 C   0  0  0  0  0  0  0  0  0  0  0  0
   -2.0458    0.6811    0.5800 C   0  0  0  0  0  0  0  0  0  0  0  0
   -1.8224    1.8816    0.6835 O   0  0  0  0  0  0  0  0  0  0  0  0
   -1.1244   -0.3191    0.3251 N   0  0  0  0  0  0  0  0  0  0  0  0
    0.2609   -0.1744    0.1062 C   0  0  0  0  0  0  0  0  0  0  0  0
    0.9279    1.0530    0.1033 C   0  0  0  0  0  0  0  0  0  0  0  0
    2.3083    1.1116   -0.1233 C   0  0  0  0  0  0  0  0  0  0  0  0
    3.0266   -0.0588   -0.3484 C   0  0  0  0  0  0  0  0  0  0  0  0
    4.7220    0.0139   -0.6268 Cl  0  0  0  0  0  0  0  0  0  0  0  0
    2.3763   -1.2891   -0.3493 C   0  0  0  0  0  0  0  0  0  0  0  0
    0.9974   -1.3453   -0.1227 C   0  0  0  0  0  0  0  0  0  0  0  0
  1  2  1  0
  2  3  2  0
  2  4  1  0
  4  5  1  0
  5  6  2  0
  6  7  1  0
  7  8  2  0
  8  9  1  0
  8 10  1  0
 10 11  2  0
 11  5  1  0
M  END
>  <target>  (879) 
-2.843

$$$$

     RDKit          3D

 19 20  0  0  0  0  0  0  0  0999 V2000
   -3.6839    0.7935    2.6569 Cl  0  0  0  0  0  0  0  0  0  0  0  0
   -2.8600    0.3828    1.2041 C   0  0  0  0  0  0  0  0  0  0  0  0
   -3.5896    0.0883    0.0556 C   0  0  0  0  0  0  0  0  0  0  0  0
   -2.9199   -0.2448   -1.1221 C   0  0  0  0  0  0  0  0  0  0  0  0
   -1.5222   -0.2821   -1.1469 C   0  0  0  0  0  0  0  0  0  0  0  0
   -0.7529   -0.7022   -2.6386 Cl  0  0  0  0  0  0  0  0  0  0  0  0
   -0.7706    0.0139    0.0088 C   0  0  0  0  0  0  0  0  0  0  0  0
   -1.4648    0.3477    1.1873 C   0  0  0  0  0  0  0  0  0  0  0  0
    0.7103   -0.0161    0.0182 C   0  0  0  0  0  0  0  0  0  0  0  0
    1.4616    1.1395   -0.3021 C   0  0  0  0  0  0  0  0  0  0  0  0
    0.6178    2.6199   -0.6816 Cl  0  0  0  0  0  0  0  0  0  0  0  0
    2.8696    1.1080   -0.3152 C   0  0  0  0  0  0  0  0  0  0  0  0
    3.7693    2.5464   -0.7122 Cl  0  0  0  0  0  0  0  0  0  0  0  0
    3.5468   -0.0845   -0.0052 C   0  0  0  0  0  0  0  0  0  0  0  0
    5.2893   -0.1265   -0.0192 Cl  0  0  0  0  0  0  0  0  0  0  0  0
    2.8181   -1.2421    0.3200 C   0  0  0  0  0  0  0  0  0  0  0  0
    3.6539   -2.7201    0.7114 Cl  0  0  0  0  0  0  0  0  0  0  0  0
    1.4102   -1.2052    0.3317 C   0  0  0  0  0  0  0  0  0  0  0  0
    0.5025   -2.6394    0.7401 Cl  0  0  0  0  0  0  0  0  0  0  0  0
  1  2  1  0
  2  3  2  0
  3  4  1  0
  4  5  2  0
  5  6  1  0
  5  7  1  0
  7  8  2  0
  7  9  1  0
  9 10  2  0
 10 11  1  0
 10 12  1  0
 12 13  1  0
 12 14  2  0
 14 15  1  0
 14 16  1  0
 16 17  1  0
 16 18  2  0
 18 19  1  0
  8  2  1  0
 18  9  1  0
M  END
>  <target>  (880) 
-8.94

$$$$

     RDKit          3D

  6  5  0  0  0  0  0  0  0  0999 V2000
    2.0425   -0.7230    0.0119 C   0  0  0  0  0  0  0  0  0  0  0  0
    1.1167    0.4852   -0.0617 C   0  0  0  0  0  0  0  0  0  0  0  0
   -0.4017    0.1769   -0.0050 C   0  0  0  0  0  0  0  0  0  0  0  0
   -1.1672    1.5116   -0.0919 C   0  0  0  0  0  0  0  0  0  0  0  0
   -0.8324   -0.7107   -1.1845 C   0  0  0  0  0  0  0  0  0  0  0  0
   -0.7785   -0.5170    1.3144 C   0  0  0  0  0  0  0  0  0  0  0  0
  1  2  1  0
  2  3  1  0
  3  4  1  0
  3  5  1  0
  3  6  1  0
M  END
>  <target>  (881) 
-3.55

$$$$

     RDKit          3D

  8  8  0  0  0  0  0  0  0  0999 V2000
    2.6399    0.3012    0.3107 C   0  0  0  0  0  0  0  0  0  0  0  0
    1.5891   -0.6842    0.4885 N   0  0  0  0  0  0  0  0  0  0  0  0
    0.2586   -0.3193    0.2517 C   0  0  0  0  0  0  0  0  0  0  0  0
   -0.6950   -1.3365    0.0947 C   0  0  0  0  0  0  0  0  0  0  0  0
   -2.0512   -1.0450   -0.0807 C   0  0  0  0  0  0  0  0  0  0  0  0
   -2.4836    0.2768   -0.0742 C   0  0  0  0  0  0  0  0  0  0  0  0
   -1.5610    1.2998    0.1219 C   0  0  0  0  0  0  0  0  0  0  0  0
   -0.2049    1.0008    0.2976 C   0  0  0  0  0  0  0  0  0  0  0  0
  1  2  1  0
  2  3  1  0
  3  4  2  0
  4  5  1  0
  5  6  2  0
  6  7  1  0
  7  8  2  0
  8  3  1  0
M  END
>  <target>  (882) 
-1.28

$$$$

     RDKit          3D

  5  4  0  0  0  0  0  0  0  0999 V2000
    2.1690   -0.5584    0.8262 C   0  0  0  0  0  0  0  0  0  0  0  0
    0.9402   -0.0248    0.8263 C   0  0  0  0  0  0  0  0  0  0  0  0
    0.2017    0.4062   -0.4071 C   0  0  0  0  0  0  0  0  0  0  0  0
   -1.0582   -0.3892   -0.5881 C   0  0  0  0  0  0  0  0  0  0  0  0
   -2.2919    0.1327   -0.5780 C   0  0  0  0  0  0  0  0  0  0  0  0
  1  2  2  0
  2  3  1  0
  3  4  1  0
  4  5  2  0
M  END
>  <target>  (883) 
-2.09

$$$$

     RDKit          3D

 29 32  0  0  0  0  0  0  0  0999 V2000
    5.8828   -1.1677   -2.3598 C   0  0  0  0  0  0  0  0  0  0  0  0
    4.5476   -1.1603   -1.6822 C   0  0  0  0  0  0  0  0  0  0  0  0
    3.9403   -0.1487   -1.3493 O   0  0  0  0  0  0  0  0  0  0  0  0
    4.1106   -2.4355   -1.4871 O   0  0  0  0  0  0  0  0  0  0  0  0
    2.8420   -2.5309   -0.8343 C   0  0  0  0  0  0  0  0  0  0  0  0
    2.8626   -1.9519    0.5800 C   0  0  0  0  0  0  0  0  0  0  0  0
    3.7267   -2.3066    1.3866 O   0  0  0  0  0  0  0  0  0  0  0  0
    1.7794   -0.9080    0.9386 C   0  0  0  0  0  0  0  0  0  0  0  0
    1.5709   -0.0240   -0.1675 O   0  0  0  0  0  0  0  0  0  0  0  0
    2.2062   -0.0052    2.1156 C   0  0  0  0  0  0  0  0  0  0  0  0
    0.9174    0.3701    2.8605 C   0  0  0  0  0  0  0  0  0  0  0  0
   -0.2431   -0.3388    2.1335 C   0  0  0  0  0  0  0  0  0  0  0  0
   -1.0013    0.6433    1.1961 C   0  0  0  0  0  0  0  0  0  0  0  0
   -1.8419    1.6202    2.0743 C   0  0  0  0  0  0  0  0  0  0  0  0
   -3.0997    2.1582    1.3972 C   0  0  0  0  0  0  0  0  0  0  0  0
   -2.8311    2.3191   -0.0685 C   0  0  0  0  0  0  0  0  0  0  0  0
   -2.6899    3.5480   -0.5942 C   0  0  0  0  0  0  0  0  0  0  0  0
   -2.3001    3.7383   -2.0072 C   0  0  0  0  0  0  0  0  0  0  0  0
   -2.0550    4.8679   -2.4196 O   0  0  0  0  0  0  0  0  0  0  0  0
   -2.2595    2.5290   -2.8957 C   0  0  0  0  0  0  0  0  0  0  0  0
   -1.7609    1.3254   -2.1063 C   0  0  0  0  0  0  0  0  0  0  0  0
   -2.5918    1.0091   -0.8332 C   0  0  0  0  0  0  0  0  0  0  0  0
   -3.9625    0.4385   -1.2705 C   0  0  0  0  0  0  0  0  0  0  0  0
   -1.8982   -0.0545    0.1363 C   0  0  0  0  0  0  0  0  0  0  0  0
   -1.2130   -1.2515   -0.5678 C   0  0  0  0  0  0  0  0  0  0  0  0
   -0.2850   -0.9044   -1.5787 O   0  0  0  0  0  0  0  0  0  0  0  0
   -0.5050   -2.1898    0.4048 C   0  0  0  0  0  0  0  0  0  0  0  0
    0.4400   -1.5422    1.4402 C   0  0  0  0  0  0  0  0  0  0  0  0
    0.7286   -2.6471    2.5012 C   0  0  0  0  0  0  0  0  0  0  0  0
  1  2  1  0
  2  3  2  0
  2  4  1  0
  4  5  1  0
  5  6  1  0
  6  7  2  0
  6  8  1  0
  8  9  1  0
  8 10  1  0
 10 11  1  0
 11 12  1  0
 12 13  1  0
 13 14  1  0
 14 15  1  0
 15 16  1  0
 16 17  2  0
 17 18  1  0
 18 19  2  0
 18 20  1  0
 20 21  1  0
 21 22  1  0
 22 23  1  0
 22 24  1  0
 24 25  1  0
 25 26  1  0
 25 27  1  0
 27 28  1  0
 28 29  1  0
 28  8  1  0
 28 12  1  0
 24 13  1  0
 22 16  1  0
M  END
>  <target>  (884) 
-4.88

$$$$

     RDKit          3D

 14 14  0  0  0  0  0  0  0  0999 V2000
    2.3307   -0.9477   -0.8481 C   0  0  0  0  0  0  0  0  0  0  0  0
    1.0079   -0.4987   -0.2870 C   0  0  0  0  0  0  0  0  0  0  0  0
   -0.0392   -1.4229   -0.1428 C   0  0  0  0  0  0  0  0  0  0  0  0
   -1.2745   -1.0136    0.3789 C   0  0  0  0  0  0  0  0  0  0  0  0
   -1.4834    0.3166    0.7626 C   0  0  0  0  0  0  0  0  0  0  0  0
   -0.4367    1.2418    0.6187 C   0  0  0  0  0  0  0  0  0  0  0  0
   -0.6709    2.6320    1.0252 N   0  0  0  0  0  0  0  0  0  0  0  0
   -1.7848    2.9254    1.4779 O   0  0  0  0  0  0  0  0  0  0  0  0
    0.2670    3.4334    0.8898 O   0  0  0  0  0  0  0  0  0  0  0  0
    0.8058    0.8392    0.0962 C   0  0  0  0  0  0  0  0  0  0  0  0
    1.8769    1.6771   -0.0766 O   0  0  0  0  0  0  0  0  0  0  0  0
   -2.3614   -1.9928    0.5239 N   0  0  0  0  0  0  0  0  0  0  0  0
   -3.4362   -1.5902    0.9887 O   0  0  0  0  0  0  0  0  0  0  0  0
   -2.1369   -3.1590    0.1733 O   0  0  0  0  0  0  0  0  0  0  0  0
  1  2  1  0
  2  3  2  0
  3  4  1  0
  4  5  2  0
  5  6  1  0
  6  7  1  0
  7  8  1  0
  7  9  2  0
  6 10  2  0
 10 11  1  0
  4 12  1  0
 12 13  1  0
 12 14  2  0
 10  2  1  0
M  CHG  4   7   1   8  -1  12   1  13  -1
M  END
>  <target>  (885) 
-1.456

$$$$

     RDKit          3D

 21 23  0  0  0  0  0  0  0  0999 V2000
   -2.0056   -3.4941    0.9033 O   0  0  0  0  0  0  0  0  0  0  0  0
   -1.7567   -2.1388    0.5675 C   0  0  0  0  0  0  0  0  0  0  0  0
   -0.3521   -1.8935    0.2860 N   0  0  0  0  0  0  0  0  0  0  0  0
    0.0673   -0.6782    0.1842 C   0  0  0  0  0  0  0  0  0  0  0  0
    1.5296   -0.5091   -0.0690 C   0  0  0  0  0  0  0  0  0  0  0  0
    2.4068   -1.1286    0.8344 C   0  0  0  0  0  0  0  0  0  0  0  0
    3.7866   -1.0004    0.6733 C   0  0  0  0  0  0  0  0  0  0  0  0
    4.2968   -0.2641   -0.3942 C   0  0  0  0  0  0  0  0  0  0  0  0
    3.4284    0.3347   -1.3095 C   0  0  0  0  0  0  0  0  0  0  0  0
    2.0434    0.2100   -1.1562 C   0  0  0  0  0  0  0  0  0  0  0  0
    1.0422    0.9265   -2.3675 Cl  0  0  0  0  0  0  0  0  0  0  0  0
   -0.7777    0.5494    0.3146 C   0  0  0  0  0  0  0  0  0  0  0  0
   -0.2317    1.6578    0.9840 C   0  0  0  0  0  0  0  0  0  0  0  0
   -0.9016    2.8787    0.9742 C   0  0  0  0  0  0  0  0  0  0  0  0
   -0.2189    4.2331    1.7844 Cl  0  0  0  0  0  0  0  0  0  0  0  0
   -2.1077    3.0153    0.2953 C   0  0  0  0  0  0  0  0  0  0  0  0
   -2.6654    1.9126   -0.3551 C   0  0  0  0  0  0  0  0  0  0  0  0
   -2.0286    0.6643   -0.3186 C   0  0  0  0  0  0  0  0  0  0  0  0
   -2.6946   -0.3913   -0.9579 N   0  0  0  0  0  0  0  0  0  0  0  0
   -2.5853   -1.7304   -0.6782 C   0  0  0  0  0  0  0  0  0  0  0  0
   -3.1951   -2.5429   -1.3777 O   0  0  0  0  0  0  0  0  0  0  0  0
  1  2  1  0
  2  3  1  0
  3  4  2  0
  4  5  1  0
  5  6  2  0
  6  7  1  0
  7  8  2  0
  8  9  1  0
  9 10  2  0
 10 11  1  0
  4 12  1  0
 12 13  2  0
 13 14  1  0
 14 15  1  0
 14 16  2  0
 16 17  1  0
 17 18  2  0
 18 19  1  0
 19 20  1  0
 20 21  2  0
 10  5  1  0
 18 12  1  0
 20  2  1  0
M  END
>  <target>  (886) 
-3.6039999999999996

$$$$

     RDKit          3D

  8  8  0  0  0  0  0  0  0  0999 V2000
    2.4972    0.2932    0.0544 O   0  0  0  0  0  0  0  0  0  0  0  0
    1.1438    0.1279    0.0255 C   0  0  0  0  0  0  0  0  0  0  0  0
    0.5673   -1.1366    0.1201 C   0  0  0  0  0  0  0  0  0  0  0  0
   -0.8227   -1.2619    0.0864 C   0  0  0  0  0  0  0  0  0  0  0  0
   -1.6235   -0.1249   -0.0413 C   0  0  0  0  0  0  0  0  0  0  0  0
   -1.0299    1.1344   -0.1349 C   0  0  0  0  0  0  0  0  0  0  0  0
   -2.0201    2.5333   -0.2922 Cl  0  0  0  0  0  0  0  0  0  0  0  0
    0.3560    1.2667   -0.1020 C   0  0  0  0  0  0  0  0  0  0  0  0
  1  2  1  0
  2  3  2  0
  3  4  1  0
  4  5  2  0
  5  6  1  0
  6  7  1  0
  6  8  2  0
  8  2  1  0
M  END
>  <target>  (887) 
-0.7

$$$$

     RDKit          3D

  8  8  0  0  0  0  0  0  0  0999 V2000
   -2.5246   -1.7842    0.0420 Cl  0  0  0  0  0  0  0  0  0  0  0  0
   -1.1360   -0.7678    0.0186 C   0  0  0  0  0  0  0  0  0  0  0  0
   -1.2955    0.6183    0.0081 C   0  0  0  0  0  0  0  0  0  0  0  0
   -0.1719    1.4460   -0.0109 C   0  0  0  0  0  0  0  0  0  0  0  0
    1.1058    0.8846   -0.0193 C   0  0  0  0  0  0  0  0  0  0  0  0
    1.2529   -0.5031   -0.0087 C   0  0  0  0  0  0  0  0  0  0  0  0
    2.9857   -1.2597   -0.0201 Br  0  0  0  0  0  0  0  0  0  0  0  0
    0.1361   -1.3365    0.0103 C   0  0  0  0  0  0  0  0  0  0  0  0
  1  2  1  0
  2  3  2  0
  3  4  1  0
  4  5  2  0
  5  6  1  0
  6  7  1  0
  6  8  2  0
  8  2  1  0
M  END
>  <target>  (888) 
-3.21

$$$$

     RDKit          3D

 17 18  0  0  0  0  0  0  0  0999 V2000
    3.8739    0.4319   -0.4650 N   0  0  0  0  0  0  0  0  0  0  0  0
    2.8285    1.3214    0.4980 S   0  0  0  0  0  0  0  0  0  0  0  0
    2.5770    2.5309   -0.2524 O   0  0  0  0  0  0  0  0  0  0  0  0
    3.3840    1.3548    1.8283 O   0  0  0  0  0  0  0  0  0  0  0  0
    1.3571    0.3463    0.5032 C   0  0  0  0  0  0  0  0  0  0  0  0
    0.1896    0.9005   -0.0370 C   0  0  0  0  0  0  0  0  0  0  0  0
   -0.9915    0.1494   -0.0349 C   0  0  0  0  0  0  0  0  0  0  0  0
   -1.0528   -1.1311    0.4982 C   0  0  0  0  0  0  0  0  0  0  0  0
   -2.2032   -1.9270    0.5748 N   0  0  0  0  0  0  0  0  0  0  0  0
   -3.3628   -1.4780    0.2498 C   0  0  0  0  0  0  0  0  0  0  0  0
   -3.6225   -0.2235   -0.2858 N   0  0  0  0  0  0  0  0  0  0  0  0
   -2.4313    0.8226   -0.7528 S   0  0  0  0  0  0  0  0  0  0  0  0
   -2.7122    2.0762   -0.0894 O   0  0  0  0  0  0  0  0  0  0  0  0
   -2.2928    0.7317   -2.1879 O   0  0  0  0  0  0  0  0  0  0  0  0
    0.1265   -1.6657    1.0319 C   0  0  0  0  0  0  0  0  0  0  0  0
    1.3294   -0.9419    1.0400 C   0  0  0  0  0  0  0  0  0  0  0  0
    2.7031   -1.7353    1.7220 Cl  0  0  0  0  0  0  0  0  0  0  0  0
  1  2  1  0
  2  3  2  0
  2  4  2  0
  2  5  1  0
  5  6  2  0
  6  7  1  0
  7  8  2  0
  8  9  1  0
  9 10  2  0
 10 11  1  0
 11 12  1  0
 12 13  2  0
 12 14  2  0
  8 15  1  0
 15 16  2  0
 16 17  1  0
 12  7  1  0
 16  5  1  0
M  END
>  <target>  (889) 
-3.05

$$$$

     RDKit          3D

 12 12  0  0  0  0  0  0  0  0999 V2000
   -0.0500   -0.4081   -2.3030 O   0  0  0  0  0  0  0  0  0  0  0  0
    0.5032   -0.2048   -1.2253 C   0  0  0  0  0  0  0  0  0  0  0  0
    1.8231   -0.5234   -1.0593 N   0  0  0  0  0  0  0  0  0  0  0  0
    2.3938   -0.8005    0.1435 C   0  0  0  0  0  0  0  0  0  0  0  0
    3.4146   -1.4753    0.2269 O   0  0  0  0  0  0  0  0  0  0  0  0
    1.7362   -0.3690    1.2527 N   0  0  0  0  0  0  0  0  0  0  0  0
    0.4092   -0.0378    1.2758 C   0  0  0  0  0  0  0  0  0  0  0  0
   -0.2241   -0.0989    2.3266 O   0  0  0  0  0  0  0  0  0  0  0  0
   -0.1706    0.4608   -0.0372 C   0  0  0  0  0  0  0  0  0  0  0  0
    0.1625    1.9647   -0.1251 C   0  0  0  0  0  0  0  0  0  0  0  0
   -1.7058    0.2888   -0.0834 C   0  0  0  0  0  0  0  0  0  0  0  0
   -2.1838   -1.1594   -0.0047 C   0  0  0  0  0  0  0  0  0  0  0  0
  1  2  2  0
  2  3  1  0
  3  4  1  0
  4  5  2  0
  4  6  1  0
  6  7  1  0
  7  8  2  0
  7  9  1  0
  9 10  1  0
  9 11  1  0
 11 12  1  0
  9  2  1  0
M  END
>  <target>  (890) 
-1.228

$$$$

     RDKit          3D

 10 10  0  0  0  0  0  0  0  0999 V2000
    3.5250    0.4552   -1.1480 O   0  0  0  0  0  0  0  0  0  0  0  0
    3.2082   -0.2280    0.0639 C   0  0  0  0  0  0  0  0  0  0  0  0
    1.7565   -0.6987    0.0415 C   0  0  0  0  0  0  0  0  0  0  0  0
    0.9260    0.4675    0.0077 O   0  0  0  0  0  0  0  0  0  0  0  0
   -0.4267    0.2653    0.0034 C   0  0  0  0  0  0  0  0  0  0  0  0
   -1.1914    1.4351    0.0172 C   0  0  0  0  0  0  0  0  0  0  0  0
   -2.5859    1.3741    0.0137 C   0  0  0  0  0  0  0  0  0  0  0  0
   -3.2258    0.1375   -0.0047 C   0  0  0  0  0  0  0  0  0  0  0  0
   -2.4701   -1.0336   -0.0201 C   0  0  0  0  0  0  0  0  0  0  0  0
   -1.0728   -0.9715   -0.0163 C   0  0  0  0  0  0  0  0  0  0  0  0
  1  2  1  0
  2  3  1  0
  3  4  1  0
  4  5  1  0
  5  6  2  0
  6  7  1  0
  7  8  2  0
  8  9  1  0
  9 10  2  0
 10  5  1  0
M  END
>  <target>  (891) 
-0.7

$$$$

     RDKit          3D

 13 14  0  0  0  0  0  0  0  0999 V2000
    0.0442   -0.6329   -1.2985 C   0  0  0  0  0  0  0  0  0  0  0  0
   -1.2494   -0.2397   -0.6210 C   0  0  0  0  0  0  0  0  0  0  0  0
   -1.6476   -0.8597    0.5727 C   0  0  0  0  0  0  0  0  0  0  0  0
   -2.8446   -0.5000    1.1938 C   0  0  0  0  0  0  0  0  0  0  0  0
   -3.6573    0.4803    0.6282 C   0  0  0  0  0  0  0  0  0  0  0  0
   -3.2739    1.1022   -0.5584 C   0  0  0  0  0  0  0  0  0  0  0  0
   -2.0766    0.7444   -1.1810 C   0  0  0  0  0  0  0  0  0  0  0  0
    1.2876   -0.3074   -0.5016 C   0  0  0  0  0  0  0  0  0  0  0  0
    1.6361    1.0247   -0.2341 C   0  0  0  0  0  0  0  0  0  0  0  0
    2.7871    1.3239    0.4966 C   0  0  0  0  0  0  0  0  0  0  0  0
    3.6031    0.2963    0.9651 C   0  0  0  0  0  0  0  0  0  0  0  0
    3.2689   -1.0312    0.7042 C   0  0  0  0  0  0  0  0  0  0  0  0
    2.1177   -1.3326   -0.0258 C   0  0  0  0  0  0  0  0  0  0  0  0
  1  2  1  0
  2  3  2  0
  3  4  1  0
  4  5  2  0
  5  6  1  0
  6  7  2  0
  1  8  1  0
  8  9  2  0
  9 10  1  0
 10 11  2  0
 11 12  1  0
 12 13  2  0
  7  2  1  0
 13  8  1  0
M  END
>  <target>  (892) 
-4.08

$$$$

     RDKit          3D

  9  8  0  0  0  0  0  0  0  0999 V2000
    4.5248   -0.3679   -0.1100 C   0  0  0  0  0  0  0  0  0  0  0  0
    3.2332   -0.1507   -0.8820 C   0  0  0  0  0  0  0  0  0  0  0  0
    2.0149   -0.1996    0.0396 C   0  0  0  0  0  0  0  0  0  0  0  0
    0.7173    0.0191   -0.7411 C   0  0  0  0  0  0  0  0  0  0  0  0
   -0.5035   -0.0317    0.1845 C   0  0  0  0  0  0  0  0  0  0  0  0
   -1.8201    0.1471   -0.5824 C   0  0  0  0  0  0  0  0  0  0  0  0
   -1.8214    1.4390   -1.1843 O   0  0  0  0  0  0  0  0  0  0  0  0
   -3.0200    0.0122    0.3626 C   0  0  0  0  0  0  0  0  0  0  0  0
   -4.3562    0.0764   -0.3654 C   0  0  0  0  0  0  0  0  0  0  0  0
  1  2  1  0
  2  3  1  0
  3  4  1  0
  4  5  1  0
  5  6  1  0
  6  7  1  0
  6  8  1  0
  8  9  1  0
M  END
>  <target>  (893) 
-1.98

$$$$

     RDKit          3D

 28 29  0  0  0  0  0  0  0  0999 V2000
    0.2434    3.5483   -0.8740 C   0  0  0  0  0  0  0  0  0  0  0  0
   -0.2532    2.2603   -1.5148 C   0  0  0  0  0  0  0  0  0  0  0  0
    0.1702    1.0886   -0.7213 N   0  0  0  0  0  0  0  0  0  0  0  0
    1.5673    0.6366   -0.9307 C   0  0  0  0  0  0  0  0  0  0  0  0
    2.2022    0.1921    0.3624 C   0  0  0  0  0  0  0  0  0  0  0  0
    2.7511    1.1623    1.2113 C   0  0  0  0  0  0  0  0  0  0  0  0
    2.7358    2.4527    0.8473 F   0  0  0  0  0  0  0  0  0  0  0  0
    3.3374    0.8326    2.4310 C   0  0  0  0  0  0  0  0  0  0  0  0
    3.3888   -0.4969    2.8333 C   0  0  0  0  0  0  0  0  0  0  0  0
    2.8547   -1.4849    2.0075 C   0  0  0  0  0  0  0  0  0  0  0  0
    2.2654   -1.1447    0.7821 C   0  0  0  0  0  0  0  0  0  0  0  0
    1.6310   -2.4409   -0.1687 Cl  0  0  0  0  0  0  0  0  0  0  0  0
   -0.8020    0.0807   -0.6015 C   0  0  0  0  0  0  0  0  0  0  0  0
   -1.2577   -0.7540   -1.6421 C   0  0  0  0  0  0  0  0  0  0  0  0
   -2.1898   -1.7959   -1.4506 C   0  0  0  0  0  0  0  0  0  0  0  0
   -2.7199   -2.0453   -0.1786 C   0  0  0  0  0  0  0  0  0  0  0  0
   -2.3270   -1.2138    0.8760 C   0  0  0  0  0  0  0  0  0  0  0  0
   -1.3968   -0.1792    0.6512 C   0  0  0  0  0  0  0  0  0  0  0  0
   -1.0799    0.6577    1.7943 N   0  0  0  0  0  0  0  0  0  0  0  0
   -1.5565    1.8006    1.8073 O   0  0  0  0  0  0  0  0  0  0  0  0
   -0.4346    0.1288    2.7102 O   0  0  0  0  0  0  0  0  0  0  0  0
   -3.7294   -3.1485    0.0400 C   0  0  0  0  0  0  0  0  0  0  0  0
   -5.0057   -2.7057   -0.1085 F   0  0  0  0  0  0  0  0  0  0  0  0
   -3.5811   -4.1809   -0.8327 F   0  0  0  0  0  0  0  0  0  0  0  0
   -3.6569   -3.6914    1.2846 F   0  0  0  0  0  0  0  0  0  0  0  0
   -0.8027   -0.5680   -3.0034 N   0  0  0  0  0  0  0  0  0  0  0  0
    0.0982   -1.3154   -3.4034 O   0  0  0  0  0  0  0  0  0  0  0  0
   -1.3849    0.2927   -3.6756 O   0  0  0  0  0  0  0  0  0  0  0  0
  1  2  1  0
  2  3  1  0
  3  4  1  0
  4  5  1  0
  5  6  2  0
  6  7  1  0
  6  8  1  0
  8  9  2  0
  9 10  1  0
 10 11  2  0
 11 12  1  0
  3 13  1  0
 13 14  2  0
 14 15  1  0
 15 16  2  0
 16 17  1  0
 17 18  2  0
 18 19  1  0
 19 20  1  0
 19 21  2  0
 16 22  1  0
 22 23  1  0
 22 24  1  0
 22 25  1  0
 14 26  1  0
 26 27  1  0
 26 28  2  0
 11  5  1  0
 18 13  1  0
M  CHG  4  19   1  20  -1  26   1  27  -1
M  END
>  <target>  (894) 
-6.78

$$$$

     RDKit          3D

 15 15  0  0  0  0  0  0  0  0999 V2000
   -4.5022   -0.2580    1.3894 C   0  0  0  0  0  0  0  0  0  0  0  0
   -3.4953   -0.3773    0.2447 C   0  0  0  0  0  0  0  0  0  0  0  0
   -3.8630    0.5905   -0.8799 C   0  0  0  0  0  0  0  0  0  0  0  0
   -2.1715   -0.0762    0.7745 N   0  0  0  0  0  0  0  0  0  0  0  0
   -1.0710   -0.4218    0.0086 C   0  0  0  0  0  0  0  0  0  0  0  0
   -1.1193   -1.4611   -0.8029 N   0  0  0  0  0  0  0  0  0  0  0  0
    0.0122   -1.6713   -1.4548 C   0  0  0  0  0  0  0  0  0  0  0  0
    0.0219   -3.0059   -2.5235 Cl  0  0  0  0  0  0  0  0  0  0  0  0
    1.1371   -0.9792   -1.3842 N   0  0  0  0  0  0  0  0  0  0  0  0
    1.0738    0.0394   -0.5479 C   0  0  0  0  0  0  0  0  0  0  0  0
    2.1657    0.8721   -0.3704 N   0  0  0  0  0  0  0  0  0  0  0  0
    3.4958    0.3010   -0.5389 C   0  0  0  0  0  0  0  0  0  0  0  0
    3.8629   -0.5815    0.6540 C   0  0  0  0  0  0  0  0  0  0  0  0
    4.4935    1.4530   -0.6657 C   0  0  0  0  0  0  0  0  0  0  0  0
   -0.0026    0.3519    0.1653 N   0  0  0  0  0  0  0  0  0  0  0  0
  1  2  1  0
  2  3  1  0
  2  4  1  0
  4  5  1  0
  5  6  2  0
  6  7  1  0
  7  8  1  0
  7  9  2  0
  9 10  1  0
 10 11  1  0
 11 12  1  0
 12 13  1  0
 12 14  1  0
 10 15  2  0
 15  5  1  0
M  END
>  <target>  (895) 
-4.43

$$$$

     RDKit          3D

  7  6  0  0  0  0  0  0  0  0999 V2000
   -2.8037    0.7503   -0.2149 C   0  0  0  0  0  0  0  0  0  0  0  0
   -1.3799    0.6872    0.3175 C   0  0  0  0  0  0  0  0  0  0  0  0
   -0.5695   -0.4043   -0.3853 C   0  0  0  0  0  0  0  0  0  0  0  0
    0.8410   -0.5991    0.2074 C   0  0  0  0  0  0  0  0  0  0  0  0
    1.5220   -1.7828   -0.4896 C   0  0  0  0  0  0  0  0  0  0  0  0
    1.7226    0.6532    0.1099 C   0  0  0  0  0  0  0  0  0  0  0  0
    1.8377    1.0861   -1.2382 O   0  0  0  0  0  0  0  0  0  0  0  0
  1  2  1  0
  2  3  1  0
  3  4  1  0
  4  5  1  0
  4  6  1  0
  6  7  1  0
M  END
>  <target>  (896) 
-1.11

$$$$

     RDKit          3D

  8  7  0  0  0  0  0  0  0  0999 V2000
    3.4952   -0.2378    0.1994 C   0  0  0  0  0  0  0  0  0  0  0  0
    2.1822   -0.8259   -0.2926 C   0  0  0  0  0  0  0  0  0  0  0  0
    0.9950    0.0655    0.0776 C   0  0  0  0  0  0  0  0  0  0  0  0
   -0.3243   -0.5322   -0.4285 C   0  0  0  0  0  0  0  0  0  0  0  0
   -1.5832    0.2610   -0.0200 C   0  0  0  0  0  0  0  0  0  0  0  0
   -1.5725    1.6921   -0.5590 C   0  0  0  0  0  0  0  0  0  0  0  0
   -2.8392   -0.4658   -0.5117 C   0  0  0  0  0  0  0  0  0  0  0  0
   -1.6525    0.3412    1.4052 O   0  0  0  0  0  0  0  0  0  0  0  0
  1  2  1  0
  2  3  1  0
  3  4  1  0
  4  5  1  0
  5  6  1  0
  5  7  1  0
  5  8  1  0
M  END
>  <target>  (897) 
-1.08

$$$$

     RDKit          3D

  8  8  0  0  0  0  0  0  0  0999 V2000
    2.4655   -0.0914    0.5929 C   0  0  0  0  0  0  0  0  0  0  0  0
    1.6239   -0.0757   -0.6740 C   0  0  0  0  0  0  0  0  0  0  0  0
    0.1498   -0.0114   -0.3670 C   0  0  0  0  0  0  0  0  0  0  0  0
   -0.5916   -1.1874   -0.1909 C   0  0  0  0  0  0  0  0  0  0  0  0
   -1.9534   -1.1268    0.1092 C   0  0  0  0  0  0  0  0  0  0  0  0
   -2.5853    0.1084    0.2406 C   0  0  0  0  0  0  0  0  0  0  0  0
   -1.8557    1.2840    0.0741 C   0  0  0  0  0  0  0  0  0  0  0  0
   -0.4937    1.2253   -0.2261 C   0  0  0  0  0  0  0  0  0  0  0  0
  1  2  1  0
  2  3  1  0
  3  4  2  0
  4  5  1  0
  5  6  2  0
  6  7  1  0
  7  8  2  0
  8  3  1  0
M  END
>  <target>  (898) 
-2.77

$$$$

     RDKit          3D

 16 16  0  0  0  0  0  0  0  0999 V2000
   -0.7761   -0.6184    2.1926 O   0  0  0  0  0  0  0  0  0  0  0  0
   -0.8475   -0.0114    1.1250 C   0  0  0  0  0  0  0  0  0  0  0  0
   -0.8091    1.3541    1.1148 N   0  0  0  0  0  0  0  0  0  0  0  0
   -1.2130    2.1441    0.0866 C   0  0  0  0  0  0  0  0  0  0  0  0
   -1.4254    3.3421    0.2430 O   0  0  0  0  0  0  0  0  0  0  0  0
   -1.4398    1.5342   -1.1064 N   0  0  0  0  0  0  0  0  0  0  0  0
   -1.5191    0.1850   -1.3070 C   0  0  0  0  0  0  0  0  0  0  0  0
   -2.0044   -0.2518   -2.3493 O   0  0  0  0  0  0  0  0  0  0  0  0
   -0.9300   -0.7023   -0.2251 C   0  0  0  0  0  0  0  0  0  0  0  0
   -1.7695   -2.0032   -0.0979 C   0  0  0  0  0  0  0  0  0  0  0  0
   -3.2220   -1.7784    0.3172 C   0  0  0  0  0  0  0  0  0  0  0  0
    0.5109   -1.1033   -0.6524 C   0  0  0  0  0  0  0  0  0  0  0  0
    1.4733    0.0345   -0.8981 C   0  0  0  0  0  0  0  0  0  0  0  0
    2.4377    0.4911   -0.0756 C   0  0  0  0  0  0  0  0  0  0  0  0
    2.7367   -0.0420    1.2997 C   0  0  0  0  0  0  0  0  0  0  0  0
    3.3286    1.6314   -0.4985 C   0  0  0  0  0  0  0  0  0  0  0  0
  1  2  2  0
  2  3  1  0
  3  4  1  0
  4  5  2  0
  4  6  1  0
  6  7  1  0
  7  8  2  0
  7  9  1  0
  9 10  1  0
 10 11  1  0
  9 12  1  0
 12 13  1  0
 13 14  2  3
 14 15  1  0
 14 16  1  0
  9  2  1  0
M  END
>  <target>  (899) 
-2.253

$$$$

     RDKit          3D

 17 19  0  0  0  0  0  0  0  0999 V2000
   -3.1604   -1.1574   -1.2532 Cl  0  0  0  0  0  0  0  0  0  0  0  0
   -1.6371   -0.2427   -1.1535 C   0  0  0  0  0  0  0  0  0  0  0  0
   -1.9349    1.1207   -0.6121 C   0  0  0  0  0  0  0  0  0  0  0  0
   -1.3579    1.3671    0.5698 C   0  0  0  0  0  0  0  0  0  0  0  0
   -0.5461    0.2052    1.0499 C   0  0  0  0  0  0  0  0  0  0  0  0
   -0.6973   -0.8524   -0.1029 C   0  0  0  0  0  0  0  0  0  0  0  0
    0.7903   -1.0887   -0.5185 C   0  0  0  0  0  0  0  0  0  0  0  0
    1.0164   -2.5459   -1.4711 Cl  0  0  0  0  0  0  0  0  0  0  0  0
    1.3561    0.1900   -1.1084 C   0  0  0  0  0  0  0  0  0  0  0  0
    1.4920    1.0673   -0.1071 C   0  0  0  0  0  0  0  0  0  0  0  0
    2.0158    2.6747   -0.1943 Cl  0  0  0  0  0  0  0  0  0  0  0  0
    1.0083    0.3847    1.1584 C   0  0  0  0  0  0  0  0  0  0  0  0
    1.5294    1.0933    2.6769 Cl  0  0  0  0  0  0  0  0  0  0  0  0
    1.5172   -1.0632    0.8701 C   0  0  0  0  0  0  0  0  0  0  0  0
    3.3144   -1.2317    0.7860 Cl  0  0  0  0  0  0  0  0  0  0  0  0
    0.9562   -2.3044    2.0462 Cl  0  0  0  0  0  0  0  0  0  0  0  0
    1.6810    0.4321   -2.7524 Cl  0  0  0  0  0  0  0  0  0  0  0  0
  1  2  1  0
  2  3  1  0
  3  4  2  0
  4  5  1  0
  5  6  1  0
  6  7  1  0
  7  8  1  0
  7  9  1  0
  9 10  2  0
 10 11  1  0
 10 12  1  0
 12 13  1  0
 12 14  1  0
 14 15  1  0
 14 16  1  0
  9 17  1  0
  6  2  1  0
 12  5  1  0
 14  7  1  0
M  END
>  <target>  (900) 
-6.317

$$$$

     RDKit          3D

 17 17  0  0  0  0  0  0  0  0999 V2000
    3.3715    0.1972   -1.2276 C   0  0  0  0  0  0  0  0  0  0  0  0
    2.0601   -0.3857   -0.7148 C   0  0  0  0  0  0  0  0  0  0  0  0
    1.1279    0.6613   -0.0481 C   0  0  0  0  0  0  0  0  0  0  0  0
    1.7961    1.2596    1.2016 C   0  0  0  0  0  0  0  0  0  0  0  0
   -0.3252    0.0843    0.2053 C   0  0  0  0  0  0  0  0  0  0  0  0
   -1.2267    1.1217    0.9439 C   0  0  0  0  0  0  0  0  0  0  0  0
   -2.7162    0.8348    0.9551 C   0  0  0  0  0  0  0  0  0  0  0  0
   -3.3260   -0.3615    2.2574 Br  0  0  0  0  0  0  0  0  0  0  0  0
   -3.5822    1.4425    0.1319 C   0  0  0  0  0  0  0  0  0  0  0  0
   -0.2273   -1.1677    1.0624 C   0  0  0  0  0  0  0  0  0  0  0  0
    0.1554   -1.1514    2.2315 O   0  0  0  0  0  0  0  0  0  0  0  0
   -0.5657   -2.3562    0.4852 N   0  0  0  0  0  0  0  0  0  0  0  0
   -1.2209   -2.5187   -0.6914 C   0  0  0  0  0  0  0  0  0  0  0  0
   -1.6115   -3.6195   -1.0643 O   0  0  0  0  0  0  0  0  0  0  0  0
   -1.4209   -1.4034   -1.4372 N   0  0  0  0  0  0  0  0  0  0  0  0
   -0.9530   -0.1527   -1.1631 C   0  0  0  0  0  0  0  0  0  0  0  0
   -1.0515    0.7342   -2.0117 O   0  0  0  0  0  0  0  0  0  0  0  0
  1  2  1  0
  2  3  1  0
  3  4  1  0
  3  5  1  0
  5  6  1  0
  6  7  1  0
  7  8  1  0
  7  9  2  0
  5 10  1  0
 10 11  2  0
 10 12  1  0
 12 13  1  0
 13 14  2  0
 13 15  1  0
 15 16  1  0
 16 17  2  0
 16  5  1  0
M  END
>  <target>  (901) 
-2.647

$$$$

     RDKit          3D

 26 28  0  0  0  0  0  0  0  0999 V2000
   -1.0278   -2.7667    0.7756 C   0  0  0  0  0  0  0  0  0  0  0  0
   -1.8923   -1.5687    0.4431 C   0  0  0  0  0  0  0  0  0  0  0  0
   -1.8750   -1.2593   -1.0396 C   0  0  0  0  0  0  0  0  0  0  0  0
   -1.9490   -0.4433    1.4747 C   0  0  0  0  0  0  0  0  0  0  0  0
   -1.9138    0.9890    1.0995 C   0  0  0  0  0  0  0  0  0  0  0  0
   -2.7427    1.7944    1.4928 O   0  0  0  0  0  0  0  0  0  0  0  0
   -0.8350    1.2743    0.3374 O   0  0  0  0  0  0  0  0  0  0  0  0
   -0.7365    2.6463   -0.0941 C   0  0  0  0  0  0  0  0  0  0  0  0
   -1.5821    2.8856   -1.2843 C   0  0  0  0  0  0  0  0  0  0  0  0
   -2.2491    3.0656   -2.2192 N   0  0  0  0  0  0  0  0  0  0  0  0
    0.7317    2.9172   -0.3929 C   0  0  0  0  0  0  0  0  0  0  0  0
    1.2923    4.1787   -0.1336 C   0  0  0  0  0  0  0  0  0  0  0  0
    2.6429    4.4237   -0.3959 C   0  0  0  0  0  0  0  0  0  0  0  0
    3.4536    3.4098   -0.9061 C   0  0  0  0  0  0  0  0  0  0  0  0
    2.9146    2.1503   -1.1569 C   0  0  0  0  0  0  0  0  0  0  0  0
    3.7678    1.1905   -1.6565 O   0  0  0  0  0  0  0  0  0  0  0  0
    3.6067   -0.0961   -1.1911 C   0  0  0  0  0  0  0  0  0  0  0  0
    3.5361   -0.3962    0.1727 C   0  0  0  0  0  0  0  0  0  0  0  0
    3.3643   -1.7183    0.5830 C   0  0  0  0  0  0  0  0  0  0  0  0
    3.2964   -2.7394   -0.3657 C   0  0  0  0  0  0  0  0  0  0  0  0
    3.4029   -2.4412   -1.7252 C   0  0  0  0  0  0  0  0  0  0  0  0
    3.5618   -1.1181   -2.1389 C   0  0  0  0  0  0  0  0  0  0  0  0
    1.5536    1.9169   -0.9412 C   0  0  0  0  0  0  0  0  0  0  0  0
   -3.1804   -1.3146    1.2474 C   0  0  0  0  0  0  0  0  0  0  0  0
   -4.3973   -0.7375    0.5534 C   0  0  0  0  0  0  0  0  0  0  0  0
   -3.5681   -2.2741    2.3530 C   0  0  0  0  0  0  0  0  0  0  0  0
  1  2  1  0
  2  3  1  0
  2  4  1  0
  4  5  1  0
  5  6  2  0
  5  7  1  0
  7  8  1  0
  8  9  1  0
  9 10  3  0
  8 11  1  0
 11 12  2  0
 12 13  1  0
 13 14  2  0
 14 15  1  0
 15 16  1  0
 16 17  1  0
 17 18  2  0
 18 19  1  0
 19 20  2  0
 20 21  1  0
 21 22  2  0
 15 23  2  0
  4 24  1  0
 24 25  1  0
 24 26  1  0
 24  2  1  0
 23 11  1  0
 22 17  1  0
M  END
>  <target>  (902) 
-6.025

$$$$

     RDKit          3D

 22 21  0  0  0  0  0  0  0  0999 V2000
   -7.8044   -0.7314   -0.7030 C   0  0  0  0  0  0  0  0  0  0  0  0
   -6.4847   -0.2102   -0.6736 O   0  0  0  0  0  0  0  0  0  0  0  0
   -5.6475   -0.6074    0.4244 C   0  0  0  0  0  0  0  0  0  0  0  0
   -5.4786   -2.1324    0.4872 C   0  0  0  0  0  0  0  0  0  0  0  0
   -6.2146   -0.0864    1.7553 C   0  0  0  0  0  0  0  0  0  0  0  0
   -4.2766    0.0815    0.1879 C   0  0  0  0  0  0  0  0  0  0  0  0
   -3.5787   -0.3253   -1.1183 C   0  0  0  0  0  0  0  0  0  0  0  0
   -2.3315    0.5138   -1.4282 C   0  0  0  0  0  0  0  0  0  0  0  0
   -1.2100    0.4868   -0.3666 C   0  0  0  0  0  0  0  0  0  0  0  0
   -0.7069   -0.9386   -0.1105 C   0  0  0  0  0  0  0  0  0  0  0  0
   -0.0607    1.4123   -0.8270 C   0  0  0  0  0  0  0  0  0  0  0  0
    0.9945    1.6186    0.2281 C   0  0  0  0  0  0  0  0  0  0  0  0
    2.2833    1.2749    0.0626 C   0  0  0  0  0  0  0  0  0  0  0  0
    3.3564    1.4477    1.0370 C   0  0  0  0  0  0  0  0  0  0  0  0
    2.9956    2.0764    2.3642 C   0  0  0  0  0  0  0  0  0  0  0  0
    4.6395    1.0839    0.8302 C   0  0  0  0  0  0  0  0  0  0  0  0
    5.2445    0.4536   -0.3711 C   0  0  0  0  0  0  0  0  0  0  0  0
    4.6780    0.1558   -1.4068 O   0  0  0  0  0  0  0  0  0  0  0  0
    6.5641    0.2655   -0.1007 O   0  0  0  0  0  0  0  0  0  0  0  0
    7.3413   -0.3436   -1.1485 C   0  0  0  0  0  0  0  0  0  0  0  0
    8.7900    0.0791   -0.9365 C   0  0  0  0  0  0  0  0  0  0  0  0
    7.2051   -1.8600   -1.0700 C   0  0  0  0  0  0  0  0  0  0  0  0
  1  2  1  0
  2  3  1  0
  3  4  1  0
  3  5  1  0
  3  6  1  0
  6  7  1  0
  7  8  1  0
  8  9  1  0
  9 10  1  0
  9 11  1  0
 11 12  1  0
 12 13  2  3
 13 14  1  0
 14 15  1  0
 14 16  2  3
 16 17  1  0
 17 18  2  0
 17 19  1  0
 19 20  1  0
 20 21  1  0
 20 22  1  0
M  END
>  <target>  (903) 
-5.19

$$$$

     RDKit          3D

  7  6  0  0  0  0  0  0  0  0999 V2000
    2.9952   -0.0615    0.6514 C   0  0  0  0  0  0  0  0  0  0  0  0
    1.7900    0.5937    0.0055 C   0  0  0  0  0  0  0  0  0  0  0  0
    0.6399   -0.2153    0.2804 O   0  0  0  0  0  0  0  0  0  0  0  0
   -0.5210    0.2662   -0.2489 C   0  0  0  0  0  0  0  0  0  0  0  0
   -0.6212    1.2921   -0.9062 O   0  0  0  0  0  0  0  0  0  0  0  0
   -1.6556   -0.6650    0.1049 C   0  0  0  0  0  0  0  0  0  0  0  0
   -2.9829   -0.1856   -0.4560 C   0  0  0  0  0  0  0  0  0  0  0  0
  1  2  1  0
  2  3  1  0
  3  4  1  0
  4  5  2  0
  4  6  1  0
  6  7  1  0
M  END
>  <target>  (904) 
-0.66

$$$$

     RDKit          3D

 16 16  0  0  0  0  0  0  0  0999 V2000
   -1.8529    3.4492   -1.2099 C   0  0  0  0  0  0  0  0  0  0  0  0
   -0.4557    3.4190   -0.0610 S   0  0  0  0  0  0  0  0  0  0  0  0
   -0.1500    1.6668    0.0236 C   0  0  0  0  0  0  0  0  0  0  0  0
    0.9693    1.3026    0.6355 N   0  0  0  0  0  0  0  0  0  0  0  0
    1.1799   -0.0012    0.6912 C   0  0  0  0  0  0  0  0  0  0  0  0
    2.3120   -0.5047    1.3114 N   0  0  0  0  0  0  0  0  0  0  0  0
    3.5143    0.3184    1.3012 C   0  0  0  0  0  0  0  0  0  0  0  0
    4.4875   -0.2527    2.3336 C   0  0  0  0  0  0  0  0  0  0  0  0
    4.1612    0.3188   -0.0839 C   0  0  0  0  0  0  0  0  0  0  0  0
    0.3584   -0.9098    0.1836 N   0  0  0  0  0  0  0  0  0  0  0  0
   -0.7356   -0.4465   -0.4033 C   0  0  0  0  0  0  0  0  0  0  0  0
   -1.5811   -1.4102   -0.9303 N   0  0  0  0  0  0  0  0  0  0  0  0
   -3.0099   -1.1243   -0.9394 C   0  0  0  0  0  0  0  0  0  0  0  0
   -3.6889   -2.1351   -1.8645 C   0  0  0  0  0  0  0  0  0  0  0  0
   -3.5954   -1.2273    0.4690 C   0  0  0  0  0  0  0  0  0  0  0  0
   -1.0373    0.8368   -0.5090 N   0  0  0  0  0  0  0  0  0  0  0  0
  1  2  1  0
  2  3  1  0
  3  4  2  0
  4  5  1  0
  5  6  1  0
  6  7  1  0
  7  8  1  0
  7  9  1  0
  5 10  2  0
 10 11  1  0
 11 12  1  0
 12 13  1  0
 13 14  1  0
 13 15  1  0
 11 16  2  0
 16  3  1  0
M  END
>  <target>  (905) 
-4.1

$$$$

     RDKit          3D

 16 16  0  0  0  0  0  0  0  0999 V2000
   -3.1359   -1.4717   -1.1242 C   0  0  0  0  0  0  0  0  0  0  0  0
   -2.8347   -0.4587   -0.0174 C   0  0  0  0  0  0  0  0  0  0  0  0
   -3.9658    0.4777    0.1563 C   0  0  0  0  0  0  0  0  0  0  0  0
   -4.8876    1.2340    0.3048 C   0  0  0  0  0  0  0  0  0  0  0  0
   -1.5710    0.2518   -0.2681 N   0  0  0  0  0  0  0  0  0  0  0  0
   -1.5830    1.3681   -1.2117 C   0  0  0  0  0  0  0  0  0  0  0  0
   -0.4056   -0.3346    0.2289 C   0  0  0  0  0  0  0  0  0  0  0  0
   -0.4113   -1.4633    0.7131 O   0  0  0  0  0  0  0  0  0  0  0  0
    0.7062    0.4763    0.1520 N   0  0  0  0  0  0  0  0  0  0  0  0
    2.0421    0.1276    0.4343 C   0  0  0  0  0  0  0  0  0  0  0  0
    2.4840   -1.1885    0.5919 C   0  0  0  0  0  0  0  0  0  0  0  0
    3.8314   -1.4583    0.8570 C   0  0  0  0  0  0  0  0  0  0  0  0
    4.7426   -0.4113    0.9582 C   0  0  0  0  0  0  0  0  0  0  0  0
    6.3984   -0.7431    1.2827 Cl  0  0  0  0  0  0  0  0  0  0  0  0
    4.3193    0.9043    0.7928 C   0  0  0  0  0  0  0  0  0  0  0  0
    2.9725    1.1716    0.5282 C   0  0  0  0  0  0  0  0  0  0  0  0
  1  2  1  0
  2  3  1  0
  3  4  3  0
  2  5  1  0
  5  6  1  0
  5  7  1  0
  7  8  2  0
  7  9  1  0
  9 10  1  0
 10 11  2  0
 11 12  1  0
 12 13  2  0
 13 14  1  0
 13 15  1  0
 15 16  2  0
 16 10  1  0
M  END
>  <target>  (906) 
-3.9

$$$$

     RDKit          3D

 12 13  0  0  0  0  0  0  0  0999 V2000
    2.4605   -1.8187   -0.2926 C   0  0  0  0  0  0  0  0  0  0  0  0
    1.2965   -0.8782   -0.1385 C   0  0  0  0  0  0  0  0  0  0  0  0
   -0.0111   -1.3757   -0.2691 C   0  0  0  0  0  0  0  0  0  0  0  0
   -1.1318   -0.5401   -0.1344 C   0  0  0  0  0  0  0  0  0  0  0  0
   -2.4392   -1.0379   -0.2650 C   0  0  0  0  0  0  0  0  0  0  0  0
   -3.5422   -0.1936   -0.1282 C   0  0  0  0  0  0  0  0  0  0  0  0
   -3.3526    1.1583    0.1408 C   0  0  0  0  0  0  0  0  0  0  0  0
   -2.0597    1.6674    0.2732 C   0  0  0  0  0  0  0  0  0  0  0  0
   -0.9397    0.8300    0.1382 C   0  0  0  0  0  0  0  0  0  0  0  0
    0.3678    1.3258    0.2684 C   0  0  0  0  0  0  0  0  0  0  0  0
    1.4883    0.4886    0.1335 C   0  0  0  0  0  0  0  0  0  0  0  0
    2.8661    1.0734    0.2829 C   0  0  0  0  0  0  0  0  0  0  0  0
  1  2  1  0
  2  3  2  0
  3  4  1  0
  4  5  2  0
  5  6  1  0
  6  7  2  0
  7  8  1  0
  8  9  2  0
  9 10  1  0
 10 11  2  0
 11 12  1  0
 11  2  1  0
  9  4  1  0
M  END
>  <target>  (907) 
-4.72

$$$$

     RDKit          3D

 15 16  0  0  0  0  0  0  0  0999 V2000
    5.2383   -0.0293    0.1451 Cl  0  0  0  0  0  0  0  0  0  0  0  0
    3.5184   -0.0260    0.1083 C   0  0  0  0  0  0  0  0  0  0  0  0
    2.8212    1.1350    0.4329 C   0  0  0  0  0  0  0  0  0  0  0  0
    1.4237    1.1373    0.4022 C   0  0  0  0  0  0  0  0  0  0  0  0
    0.7114   -0.0207    0.0495 C   0  0  0  0  0  0  0  0  0  0  0  0
    1.4338   -1.1799   -0.2777 C   0  0  0  0  0  0  0  0  0  0  0  0
    2.8312   -1.1838   -0.2473 C   0  0  0  0  0  0  0  0  0  0  0  0
   -0.7577   -0.0128    0.0092 C   0  0  0  0  0  0  0  0  0  0  0  0
   -1.4055    0.6040   -1.0782 C   0  0  0  0  0  0  0  0  0  0  0  0
   -2.7984    0.6323   -1.1580 C   0  0  0  0  0  0  0  0  0  0  0  0
   -3.5614    1.3918   -2.4996 Cl  0  0  0  0  0  0  0  0  0  0  0  0
   -3.5750    0.0504   -0.1606 C   0  0  0  0  0  0  0  0  0  0  0  0
   -2.9531   -0.5640    0.9264 C   0  0  0  0  0  0  0  0  0  0  0  0
   -1.5560   -0.5960    1.0130 C   0  0  0  0  0  0  0  0  0  0  0  0
   -0.8627   -1.3622    2.4009 Cl  0  0  0  0  0  0  0  0  0  0  0  0
  1  2  1  0
  2  3  2  0
  3  4  1  0
  4  5  2  0
  5  6  1  0
  6  7  2  0
  5  8  1  0
  8  9  2  0
  9 10  1  0
 10 11  1  0
 10 12  2  0
 12 13  1  0
 13 14  2  0
 14 15  1  0
  7  2  1  0
 14  8  1  0
M  END
>  <target>  (908) 
-6.25

$$$$

     RDKit          3D

 18 19  0  0  0  0  0  0  0  0999 V2000
   -5.2816    0.2222   -0.2375 Cl  0  0  0  0  0  0  0  0  0  0  0  0
   -3.5651    0.1433   -0.1645 C   0  0  0  0  0  0  0  0  0  0  0  0
   -2.9000    0.6205    0.9619 C   0  0  0  0  0  0  0  0  0  0  0  0
   -1.5055    0.5592    1.0239 C   0  0  0  0  0  0  0  0  0  0  0  0
   -0.7596    0.0179   -0.0391 C   0  0  0  0  0  0  0  0  0  0  0  0
   -1.4573   -0.4553   -1.1690 C   0  0  0  0  0  0  0  0  0  0  0  0
   -0.6213   -1.1252   -2.5287 Cl  0  0  0  0  0  0  0  0  0  0  0  0
   -2.8519   -0.3940   -1.2317 C   0  0  0  0  0  0  0  0  0  0  0  0
    0.7103   -0.0316    0.0626 C   0  0  0  0  0  0  0  0  0  0  0  0
    1.4516    1.0734   -0.3858 C   0  0  0  0  0  0  0  0  0  0  0  0
    2.8475    1.0788   -0.3258 C   0  0  0  0  0  0  0  0  0  0  0  0
    3.6506    2.4965   -0.9081 Cl  0  0  0  0  0  0  0  0  0  0  0  0
    3.5389   -0.0259    0.1890 C   0  0  0  0  0  0  0  0  0  0  0  0
    5.2762   -0.0023    0.2598 Cl  0  0  0  0  0  0  0  0  0  0  0  0
    2.8154   -1.1426    0.6473 C   0  0  0  0  0  0  0  0  0  0  0  0
    3.6590   -2.5216    1.2967 Cl  0  0  0  0  0  0  0  0  0  0  0  0
    1.4061   -1.1437    0.5847 C   0  0  0  0  0  0  0  0  0  0  0  0
    0.4956   -2.5149    1.1565 Cl  0  0  0  0  0  0  0  0  0  0  0  0
  1  2  1  0
  2  3  2  0
  3  4  1  0
  4  5  2  0
  5  6  1  0
  6  7  1  0
  6  8  2  0
  5  9  1  0
  9 10  2  0
 10 11  1  0
 11 12  1  0
 11 13  2  0
 13 14  1  0
 13 15  1  0
 15 16  1  0
 15 17  2  0
 17 18  1  0
  8  2  1  0
 17  9  1  0
M  END
>  <target>  (909) 
-7.39

$$$$

     RDKit          3D

  6  5  0  0  0  0  0  0  0  0999 V2000
   -0.3383    0.7134   -0.8811 N   0  0  0  0  0  0  0  0  0  0  0  0
    0.2731   -0.1170    0.0010 C   0  0  0  0  0  0  0  0  0  0  0  0
    1.5590   -0.3064   -0.3844 N   0  0  0  0  0  0  0  0  0  0  0  0
   -0.1811   -0.6823    1.0646 N   0  0  0  0  0  0  0  0  0  0  0  0
   -1.4541   -0.4549    1.4003 C   0  0  0  0  0  0  0  0  0  0  0  0
   -2.5654   -0.2445    1.6552 N   0  0  0  0  0  0  0  0  0  0  0  0
  1  2  1  0
  2  3  1  0
  2  4  2  3
  4  5  1  0
  5  6  3  0
M  END
>  <target>  (910) 
-0.31

$$$$

     RDKit          3D

  7  6  0  0  0  0  0  0  0  0999 V2000
   -1.1070    1.7124   -0.3150 Cl  0  0  0  0  0  0  0  0  0  0  0  0
   -0.5953    0.0349   -0.0466 C   0  0  0  0  0  0  0  0  0  0  0  0
   -1.2481   -0.5782    1.4832 Cl  0  0  0  0  0  0  0  0  0  0  0  0
   -1.0438   -0.9815   -1.4280 Cl  0  0  0  0  0  0  0  0  0  0  0  0
    0.9380   -0.0379    0.0711 N   0  0  0  0  0  0  0  0  0  0  0  0
    1.6050    1.0069   -0.0267 O   0  0  0  0  0  0  0  0  0  0  0  0
    1.4512   -1.1566    0.2620 O   0  0  0  0  0  0  0  0  0  0  0  0
  1  2  1  0
  2  3  1  0
  2  4  1  0
  2  5  1  0
  5  6  1  0
  5  7  2  0
M  CHG  2   5   1   6  -1
M  END
>  <target>  (911) 
-2.0

$$$$

     RDKit          3D

 14 15  0  0  0  0  0  0  0  0999 V2000
   -0.5573   -2.6608   -0.8221 Cl  0  0  0  0  0  0  0  0  0  0  0  0
   -1.4178   -1.2355   -0.3393 C   0  0  0  0  0  0  0  0  0  0  0  0
   -2.8161   -1.3187   -0.3144 C   0  0  0  0  0  0  0  0  0  0  0  0
   -3.5781   -0.2169    0.0624 C   0  0  0  0  0  0  0  0  0  0  0  0
   -2.9421    0.9697    0.4148 C   0  0  0  0  0  0  0  0  0  0  0  0
   -1.5440    1.0560    0.3909 C   0  0  0  0  0  0  0  0  0  0  0  0
   -0.8457    2.5758    0.8465 Cl  0  0  0  0  0  0  0  0  0  0  0  0
   -0.7477   -0.0453    0.0130 C   0  0  0  0  0  0  0  0  0  0  0  0
    0.7221    0.0438   -0.0126 C   0  0  0  0  0  0  0  0  0  0  0  0
    1.3957    0.4512   -1.1750 C   0  0  0  0  0  0  0  0  0  0  0  0
    2.7894    0.5356   -1.1988 C   0  0  0  0  0  0  0  0  0  0  0  0
    3.5272    0.2138   -0.0615 C   0  0  0  0  0  0  0  0  0  0  0  0
    2.8736   -0.1923    1.1001 C   0  0  0  0  0  0  0  0  0  0  0  0
    1.4799   -0.2769    1.1249 C   0  0  0  0  0  0  0  0  0  0  0  0
  1  2  1  0
  2  3  2  0
  3  4  1  0
  4  5  2  0
  5  6  1  0
  6  7  1  0
  6  8  2  0
  8  9  1  0
  9 10  2  0
 10 11  1  0
 11 12  2  0
 12 13  1  0
 13 14  2  0
  8  2  1  0
 14  9  1  0
M  END
>  <target>  (912) 
-5.21

$$$$

     RDKit          3D

 10 10  0  0  0  0  0  0  0  0999 V2000
   -3.1855   -0.2273    0.1267 C   0  0  0  0  0  0  0  0  0  0  0  0
   -2.2221    0.8139    0.0225 O   0  0  0  0  0  0  0  0  0  0  0  0
   -0.9069    0.4403    0.0019 C   0  0  0  0  0  0  0  0  0  0  0  0
   -0.4236   -0.8677    0.0736 C   0  0  0  0  0  0  0  0  0  0  0  0
    0.9540   -1.1096    0.0419 C   0  0  0  0  0  0  0  0  0  0  0  0
    1.8488   -0.0418   -0.0618 C   0  0  0  0  0  0  0  0  0  0  0  0
    3.3036   -0.2908   -0.0958 C   0  0  0  0  0  0  0  0  0  0  0  0
    3.7730   -1.4204   -0.0356 O   0  0  0  0  0  0  0  0  0  0  0  0
    1.3750    1.2685   -0.1341 C   0  0  0  0  0  0  0  0  0  0  0  0
   -0.0020    1.5024   -0.1018 C   0  0  0  0  0  0  0  0  0  0  0  0
  1  2  1  0
  2  3  1  0
  3  4  2  0
  4  5  1  0
  5  6  2  0
  6  7  1  0
  7  8  2  0
  6  9  1  0
  9 10  2  0
 10  3  1  0
M  END
>  <target>  (913) 
-1.49

$$$$

     RDKit          3D

 13 13  0  0  0  0  0  0  0  0999 V2000
   -3.9176    0.3126    0.5993 C   0  0  0  0  0  0  0  0  0  0  0  0
   -2.5306   -0.2751    0.6822 C   0  0  0  0  0  0  0  0  0  0  0  0
   -2.3379   -1.3526    1.2331 O   0  0  0  0  0  0  0  0  0  0  0  0
   -1.5859    0.5201    0.0576 N   0  0  0  0  0  0  0  0  0  0  0  0
   -0.2021    0.2770   -0.0589 C   0  0  0  0  0  0  0  0  0  0  0  0
    0.4423   -0.8434    0.4741 C   0  0  0  0  0  0  0  0  0  0  0  0
    1.8236   -1.0161    0.3181 C   0  0  0  0  0  0  0  0  0  0  0  0
    2.5671   -0.0579   -0.3778 C   0  0  0  0  0  0  0  0  0  0  0  0
    1.9372    1.0691   -0.9165 C   0  0  0  0  0  0  0  0  0  0  0  0
    0.5568    1.2303   -0.7539 C   0  0  0  0  0  0  0  0  0  0  0  0
    4.0150   -0.2342   -0.5440 N   0  0  0  0  0  0  0  0  0  0  0  0
    4.6326    0.6403   -1.1688 O   0  0  0  0  0  0  0  0  0  0  0  0
    4.5348   -1.2450   -0.0509 O   0  0  0  0  0  0  0  0  0  0  0  0
  1  2  1  0
  2  3  2  0
  2  4  1  0
  4  5  1  0
  5  6  2  0
  6  7  1  0
  7  8  2  0
  8  9  1  0
  9 10  2  0
  8 11  1  0
 11 12  1  0
 11 13  2  0
 10  5  1  0
M  CHG  2  11   1  12  -1
M  END
>  <target>  (914) 
-2.6919999999999997

$$$$

     RDKit          3D

 11 10  0  0  0  0  0  0  0  0999 V2000
   -3.3463    1.0054    3.1151 C   0  0  0  0  0  0  0  0  0  0  0  0
   -2.4222    1.1155    1.9129 C   0  0  0  0  0  0  0  0  0  0  0  0
   -2.0088   -0.2623    1.3962 C   0  0  0  0  0  0  0  0  0  0  0  0
   -1.0790   -0.1471    0.1866 C   0  0  0  0  0  0  0  0  0  0  0  0
   -0.6680   -1.5291   -0.3311 C   0  0  0  0  0  0  0  0  0  0  0  0
    0.2412   -1.4460   -1.5569 C   0  0  0  0  0  0  0  0  0  0  0  0
    1.6352   -0.9607   -1.2288 C   0  0  0  0  0  0  0  0  0  0  0  0
    2.1349   -0.9441   -0.1134 O   0  0  0  0  0  0  0  0  0  0  0  0
    2.2591   -0.5698   -2.3766 O   0  0  0  0  0  0  0  0  0  0  0  0
    3.6050   -0.0953   -2.2247 C   0  0  0  0  0  0  0  0  0  0  0  0
    3.6038    1.3842   -1.8886 C   0  0  0  0  0  0  0  0  0  0  0  0
  1  2  1  0
  2  3  1  0
  3  4  1  0
  4  5  1  0
  5  6  1  0
  6  7  1  0
  7  8  2  0
  7  9  1  0
  9 10  1  0
 10 11  1  0
M  END
>  <target>  (915) 
-2.74

$$$$

     RDKit          3D

 11 11  0  0  0  0  0  0  0  0999 V2000
    3.7098    0.0416   -0.1966 C   0  0  0  0  0  0  0  0  0  0  0  0
    2.3308   -0.4469    0.1719 C   0  0  0  0  0  0  0  0  0  0  0  0
    2.1865   -1.4171    0.9070 O   0  0  0  0  0  0  0  0  0  0  0  0
    1.3340    0.3337   -0.3850 N   0  0  0  0  0  0  0  0  0  0  0  0
   -0.0603    0.1725   -0.2497 C   0  0  0  0  0  0  0  0  0  0  0  0
   -0.8778    1.1037   -0.9051 C   0  0  0  0  0  0  0  0  0  0  0  0
   -2.2695    1.0130   -0.8214 C   0  0  0  0  0  0  0  0  0  0  0  0
   -2.8475   -0.0095   -0.0824 C   0  0  0  0  0  0  0  0  0  0  0  0
   -4.2078   -0.0637   -0.0252 O   0  0  0  0  0  0  0  0  0  0  0  0
   -2.0552   -0.9430    0.5741 C   0  0  0  0  0  0  0  0  0  0  0  0
   -0.6610   -0.8502    0.4889 C   0  0  0  0  0  0  0  0  0  0  0  0
  1  2  1  0
  2  3  2  0
  2  4  1  0
  4  5  1  0
  5  6  2  0
  6  7  1  0
  7  8  2  0
  8  9  1  0
  8 10  1  0
 10 11  2  0
 11  5  1  0
M  END
>  <target>  (916) 
-1.03

$$$$

     RDKit          3D

  9 10  0  0  0  0  0  0  0  0999 V2000
   -1.8173   -0.8235   -0.1275 C   0  0  0  0  0  0  0  0  0  0  0  0
   -1.9136    0.5370    0.1699 C   0  0  0  0  0  0  0  0  0  0  0  0
   -0.7703    1.3313    0.3099 C   0  0  0  0  0  0  0  0  0  0  0  0
    0.4655    0.6999    0.1386 C   0  0  0  0  0  0  0  0  0  0  0  0
    1.7495    1.1735    0.2052 N   0  0  0  0  0  0  0  0  0  0  0  0
    2.6935    0.2421   -0.0230 N   0  0  0  0  0  0  0  0  0  0  0  0
    1.9836   -0.8679   -0.2436 C   0  0  0  0  0  0  0  0  0  0  0  0
    0.5902   -0.6526   -0.1579 C   0  0  0  0  0  0  0  0  0  0  0  0
   -0.5686   -1.4356   -0.2950 C   0  0  0  0  0  0  0  0  0  0  0  0
  1  2  2  0
  2  3  1  0
  3  4  2  0
  4  5  1  0
  5  6  1  0
  6  7  2  0
  7  8  1  0
  8  9  2  0
  8  4  1  0
  9  1  1  0
M  END
>  <target>  (917) 
-2.16

$$$$

     RDKit          3D

 31 35  0  0  0  0  0  0  0  0999 V2000
   -4.7918    1.8349   -0.5346 C   0  0  0  0  0  0  0  0  0  0  0  0
   -3.3944    2.2458   -0.0910 C   0  0  0  0  0  0  0  0  0  0  0  0
   -3.4605    3.5224    0.7495 C   0  0  0  0  0  0  0  0  0  0  0  0
   -2.5778    2.4640   -1.2455 O   0  0  0  0  0  0  0  0  0  0  0  0
   -1.2576    2.1274   -0.8246 C   0  0  0  0  0  0  0  0  0  0  0  0
   -0.4405    1.4426   -1.9430 C   0  0  0  0  0  0  0  0  0  0  0  0
    0.0879    0.1873   -1.2474 C   0  0  0  0  0  0  0  0  0  0  0  0
    0.8091   -0.9124   -2.0433 C   0  0  0  0  0  0  0  0  0  0  0  0
    2.0399   -0.3827   -2.8108 C   0  0  0  0  0  0  0  0  0  0  0  0
    3.1800    0.1294   -1.9132 C   0  0  0  0  0  0  0  0  0  0  0  0
    3.0408   -0.3628   -0.4920 C   0  0  0  0  0  0  0  0  0  0  0  0
    3.0642    0.5134    0.5332 C   0  0  0  0  0  0  0  0  0  0  0  0
    2.5439    0.1114    1.8625 C   0  0  0  0  0  0  0  0  0  0  0  0
    1.9897    0.9151    2.6019 O   0  0  0  0  0  0  0  0  0  0  0  0
    2.6188   -1.3279    2.1717 C   0  0  0  0  0  0  0  0  0  0  0  0
    2.6348   -2.2061    1.1588 C   0  0  0  0  0  0  0  0  0  0  0  0
    2.6294   -1.8348   -0.3235 C   0  0  0  0  0  0  0  0  0  0  0  0
    3.7600   -2.7046   -0.9367 C   0  0  0  0  0  0  0  0  0  0  0  0
    1.2450   -2.1068   -1.1057 C   0  0  0  0  0  0  0  0  0  0  0  0
    1.4895   -3.1550   -1.9821 F   0  0  0  0  0  0  0  0  0  0  0  0
    0.0099   -2.5696   -0.2677 C   0  0  0  0  0  0  0  0  0  0  0  0
    0.3135   -3.6443    0.6240 O   0  0  0  0  0  0  0  0  0  0  0  0
   -0.6675   -1.4330    0.5198 C   0  0  0  0  0  0  0  0  0  0  0  0
   -1.1074   -0.2746   -0.3919 C   0  0  0  0  0  0  0  0  0  0  0  0
   -2.2970   -0.7853   -1.2517 C   0  0  0  0  0  0  0  0  0  0  0  0
   -1.4537    1.0904    0.3061 C   0  0  0  0  0  0  0  0  0  0  0  0
   -2.8193    1.1941    0.6988 O   0  0  0  0  0  0  0  0  0  0  0  0
   -0.5149    1.4469    1.4818 C   0  0  0  0  0  0  0  0  0  0  0  0
    0.5603    2.0421    1.3280 O   0  0  0  0  0  0  0  0  0  0  0  0
   -0.8752    0.9635    2.8705 C   0  0  0  0  0  0  0  0  0  0  0  0
    0.3384    0.6053    3.5346 O   0  0  0  0  0  0  0  0  0  0  0  0
  1  2  1  0
  2  3  1  0
  2  4  1  0
  4  5  1  0
  5  6  1  0
  6  7  1  0
  7  8  1  0
  8  9  1  0
  9 10  1  0
 10 11  1  0
 11 12  2  0
 12 13  1  0
 13 14  2  0
 13 15  1  0
 15 16  2  0
 16 17  1  0
 17 18  1  0
 17 19  1  0
 19 20  1  0
 19 21  1  0
 21 22  1  0
 21 23  1  0
 23 24  1  0
 24 25  1  0
 24 26  1  0
 26 27  1  0
 26 28  1  0
 28 29  2  0
 28 30  1  0
 30 31  1  0
 17 11  1  0
 19  8  1  0
 24  7  1  0
 26  5  1  0
 27  2  1  0
M  END
>  <target>  (918) 
-4.31

$$$$

     RDKit          3D

 11 12  0  0  0  0  0  0  0  0999 V2000
    2.8130   -0.6215    0.2998 N   0  0  0  0  0  0  0  0  0  0  0  0
    1.5197   -0.2481    0.1275 C   0  0  0  0  0  0  0  0  0  0  0  0
    0.5702   -1.1441    0.1813 N   0  0  0  0  0  0  0  0  0  0  0  0
   -0.6605   -0.6175   -0.0048 C   0  0  0  0  0  0  0  0  0  0  0  0
   -1.8336   -1.3092   -0.0025 N   0  0  0  0  0  0  0  0  0  0  0  0
   -2.8368   -0.4011   -0.2272 C   0  0  0  0  0  0  0  0  0  0  0  0
   -2.3728    0.8242   -0.3732 N   0  0  0  0  0  0  0  0  0  0  0  0
   -1.0136    0.6908   -0.2372 C   0  0  0  0  0  0  0  0  0  0  0  0
    0.0494    1.6694   -0.3029 C   0  0  0  0  0  0  0  0  0  0  0  0
   -0.0872    2.8692   -0.5206 O   0  0  0  0  0  0  0  0  0  0  0  0
    1.2984    1.0982   -0.0904 N   0  0  0  0  0  0  0  0  0  0  0  0
  1  2  1  0
  2  3  2  0
  3  4  1  0
  4  5  1  0
  5  6  1  0
  6  7  2  0
  7  8  1  0
  8  9  1  0
  9 10  2  0
  9 11  1  0
  8  4  2  0
 11  2  1  0
M  END
>  <target>  (919) 
-3.583

$$$$

     RDKit          3D

  5  4  0  0  0  0  0  0  0  0999 V2000
   -1.8279    0.1032   -0.2271 C   0  0  0  0  0  0  0  0  0  0  0  0
   -0.5862    0.2199    0.4686 O   0  0  0  0  0  0  0  0  0  0  0  0
    0.4965   -0.1484   -0.2697 C   0  0  0  0  0  0  0  0  0  0  0  0
    0.4667   -0.5489   -1.4246 O   0  0  0  0  0  0  0  0  0  0  0  0
    1.7466    0.0076    0.5410 C   0  0  0  0  0  0  0  0  0  0  0  0
  1  2  1  0
  2  3  1  0
  3  4  2  0
  3  5  1  0
M  END
>  <target>  (920) 
0.46

$$$$

     RDKit          3D

 21 24  0  0  0  0  0  0  0  0999 V2000
   -2.8506    0.3499   -2.0989 C   0  0  0  0  0  0  0  0  0  0  0  0
   -2.6883    0.3047   -0.5698 C   0  0  0  0  0  0  0  0  0  0  0  0
   -2.0307    1.6102   -0.0674 C   0  0  0  0  0  0  0  0  0  0  0  0
   -0.5453    1.7122   -0.4163 C   0  0  0  0  0  0  0  0  0  0  0  0
    0.2650    0.5091    0.1131 C   0  0  0  0  0  0  0  0  0  0  0  0
   -0.3578   -0.8142   -0.4001 C   0  0  0  0  0  0  0  0  0  0  0  0
    0.3904   -2.0281    0.1591 C   0  0  0  0  0  0  0  0  0  0  0  0
    1.8696   -1.9738   -0.1839 C   0  0  0  0  0  0  0  0  0  0  0  0
    2.5323   -0.6870    0.3409 C   0  0  0  0  0  0  0  0  0  0  0  0
    4.0314   -0.7237    0.0051 C   0  0  0  0  0  0  0  0  0  0  0  0
    4.2700   -0.4418   -1.4590 C   0  0  0  0  0  0  0  0  0  0  0  0
    5.0381   -1.1287   -2.1305 O   0  0  0  0  0  0  0  0  0  0  0  0
    3.6087    0.7881   -2.0267 C   0  0  0  0  0  0  0  0  0  0  0  0
    2.1231    0.8178   -1.6799 C   0  0  0  0  0  0  0  0  0  0  0  0
    1.8187    0.6128   -0.1681 C   0  0  0  0  0  0  0  0  0  0  0  0
    2.3734    1.8295    0.6219 C   0  0  0  0  0  0  0  0  0  0  0  0
   -1.8732   -0.9276   -0.1230 C   0  0  0  0  0  0  0  0  0  0  0  0
   -2.2672   -1.1256    1.3520 C   0  0  0  0  0  0  0  0  0  0  0  0
   -3.6563   -0.5009    1.5196 C   0  0  0  0  0  0  0  0  0  0  0  0
   -4.0354    0.0667    0.1511 C   0  0  0  0  0  0  0  0  0  0  0  0
   -4.8217   -0.9185   -0.5141 O   0  0  0  0  0  0  0  0  0  0  0  0
  1  2  1  0
  2  3  1  0
  3  4  1  0
  4  5  1  0
  5  6  1  0
  6  7  1  0
  7  8  1  0
  8  9  1  0
  9 10  1  0
 10 11  1  0
 11 12  2  0
 11 13  1  0
 13 14  1  0
 14 15  1  0
 15 16  1  0
  6 17  1  0
 17 18  1  0
 18 19  1  0
 19 20  1  0
 20 21  1  0
 15  5  1  0
 15  9  1  0
 17  2  1  0
 20  2  1  0
M  END
>  <target>  (921) 
-4.743

$$$$

     RDKit          3D

  7  6  0  0  0  0  0  0  0  0999 V2000
    2.8229   -0.7085    0.3088 C   0  0  0  0  0  0  0  0  0  0  0  0
    1.3404   -0.8108    0.6324 C   0  0  0  0  0  0  0  0  0  0  0  0
    0.4967    0.0198   -0.3397 C   0  0  0  0  0  0  0  0  0  0  0  0
   -0.9969   -0.0483   -0.0057 C   0  0  0  0  0  0  0  0  0  0  0  0
   -1.4563   -1.3854   -0.1632 O   0  0  0  0  0  0  0  0  0  0  0  0
   -1.8054    0.8119   -0.9322 C   0  0  0  0  0  0  0  0  0  0  0  0
   -2.5824    1.8304   -0.5404 C   0  0  0  0  0  0  0  0  0  0  0  0
  1  2  1  0
  2  3  1  0
  3  4  1  0
  4  5  1  0
  4  6  1  0
  6  7  2  0
M  END
>  <target>  (922) 
-0.59

$$$$

     RDKit          3D

 39 45  0  0  0  0  0  0  0  0999 V2000
    2.9873   -1.2158    1.3300 O   0  0  0  0  0  0  0  0  0  0  0  0
    2.5343   -0.4586    0.1799 C   0  0  0  0  0  0  0  0  0  0  0  0
    1.1257   -0.9648   -0.0219 C   0  0  0  0  0  0  0  0  0  0  0  0
    0.5307   -1.6386   -1.0349 C   0  0  0  0  0  0  0  0  0  0  0  0
   -0.9006   -1.9307   -0.6172 C   0  0  0  0  0  0  0  0  0  0  0  0
   -0.8083   -3.0000    0.4861 C   0  0  0  0  0  0  0  0  0  0  0  0
   -0.1495   -2.2242    1.6645 C   0  0  0  0  0  0  0  0  0  0  0  0
    0.0723   -0.8155    1.0751 C   0  0  0  0  0  0  0  0  0  0  0  0
   -1.1755   -0.6991    0.2221 C   0  0  0  0  0  0  0  0  0  0  0  0
   -2.1446    0.2357    0.1556 C   0  0  0  0  0  0  0  0  0  0  0  0
   -3.1979    0.0717   -0.8708 C   0  0  0  0  0  0  0  0  0  0  0  0
   -3.1515    0.8177   -2.0551 C   0  0  0  0  0  0  0  0  0  0  0  0
   -4.1365    0.6578   -3.0319 C   0  0  0  0  0  0  0  0  0  0  0  0
   -5.1758   -0.2496   -2.8328 C   0  0  0  0  0  0  0  0  0  0  0  0
   -5.2327   -0.9946   -1.6560 C   0  0  0  0  0  0  0  0  0  0  0  0
   -4.2502   -0.8329   -0.6766 C   0  0  0  0  0  0  0  0  0  0  0  0
   -2.0614    1.4375    1.0178 C   0  0  0  0  0  0  0  0  0  0  0  0
   -2.2430    1.3586    2.3951 C   0  0  0  0  0  0  0  0  0  0  0  0
   -2.1391    2.5217    3.1537 C   0  0  0  0  0  0  0  0  0  0  0  0
   -1.8788    3.7285    2.5178 C   0  0  0  0  0  0  0  0  0  0  0  0
   -1.7268    3.7199    1.1421 C   0  0  0  0  0  0  0  0  0  0  0  0
   -1.8038    2.6067    0.3807 N   0  0  0  0  0  0  0  0  0  0  0  0
   -1.1907   -2.2650    2.7471 C   0  0  0  0  0  0  0  0  0  0  0  0
   -1.1356   -1.6849    3.8191 O   0  0  0  0  0  0  0  0  0  0  0  0
   -2.2346   -3.0279    2.3286 N   0  0  0  0  0  0  0  0  0  0  0  0
   -2.1409   -3.4256    1.0323 C   0  0  0  0  0  0  0  0  0  0  0  0
   -3.0128   -4.0153    0.4156 O   0  0  0  0  0  0  0  0  0  0  0  0
    3.4797   -0.7678   -0.9972 C   0  0  0  0  0  0  0  0  0  0  0  0
    3.3072   -0.1511   -2.2531 C   0  0  0  0  0  0  0  0  0  0  0  0
    4.1661   -0.4250   -3.3218 C   0  0  0  0  0  0  0  0  0  0  0  0
    5.2163   -1.3236   -3.1618 C   0  0  0  0  0  0  0  0  0  0  0  0
    5.4057   -1.9509   -1.9346 C   0  0  0  0  0  0  0  0  0  0  0  0
    4.5470   -1.6772   -0.8659 C   0  0  0  0  0  0  0  0  0  0  0  0
    2.5966    1.0317    0.5920 C   0  0  0  0  0  0  0  0  0  0  0  0
    1.8287    2.0121   -0.0386 C   0  0  0  0  0  0  0  0  0  0  0  0
    1.9198    3.3298    0.4018 C   0  0  0  0  0  0  0  0  0  0  0  0
    2.7599    3.6414    1.4622 C   0  0  0  0  0  0  0  0  0  0  0  0
    3.4839    2.6176    2.0457 C   0  0  0  0  0  0  0  0  0  0  0  0
    3.4223    1.3290    1.6441 N   0  0  0  0  0  0  0  0  0  0  0  0
  1  2  1  0
  2  3  1  0
  3  4  2  0
  4  5  1  0
  5  6  1  0
  6  7  1  0
  7  8  1  0
  8  9  1  0
  9 10  2  3
 10 11  1  0
 11 12  2  0
 12 13  1  0
 13 14  2  0
 14 15  1  0
 15 16  2  0
 10 17  1  0
 17 18  2  0
 18 19  1  0
 19 20  2  0
 20 21  1  0
 21 22  2  0
  7 23  1  0
 23 24  2  0
 23 25  1  0
 25 26  1  0
 26 27  2  0
  2 28  1  0
 28 29  2  0
 29 30  1  0
 30 31  2  0
 31 32  1  0
 32 33  2  0
  2 34  1  0
 34 35  2  0
 35 36  1  0
 36 37  2  0
 37 38  1  0
 38 39  2  0
  8  3  1  0
  9  5  1  0
 16 11  1  0
 22 17  1  0
 26  6  1  0
 33 28  1  0
 39 34  1  0
M  END
>  <target>  (923) 
-3.931

$$$$

     RDKit          3D

  9  8  0  0  0  0  0  0  0  0999 V2000
   -4.8773    0.5251    0.4446 C   0  0  0  0  0  0  0  0  0  0  0  0
   -3.7022   -0.3639    0.0704 C   0  0  0  0  0  0  0  0  0  0  0  0
   -2.3735    0.3702    0.2270 C   0  0  0  0  0  0  0  0  0  0  0  0
   -1.1921   -0.5172   -0.1471 C   0  0  0  0  0  0  0  0  0  0  0  0
    0.0063    0.2375    0.0251 O   0  0  0  0  0  0  0  0  0  0  0  0
    1.1645   -0.5268   -0.3065 C   0  0  0  0  0  0  0  0  0  0  0  0
    2.3926    0.3508   -0.0953 C   0  0  0  0  0  0  0  0  0  0  0  0
    3.6821   -0.3938   -0.4290 C   0  0  0  0  0  0  0  0  0  0  0  0
    4.9041    0.4854   -0.2169 C   0  0  0  0  0  0  0  0  0  0  0  0
  1  2  1  0
  2  3  1  0
  3  4  1  0
  4  5  1  0
  5  6  1  0
  6  7  1  0
  7  8  1  0
  8  9  1  0
M  END
>  <target>  (924) 
-1.85

$$$$

     RDKit          3D

 13 12  0  0  0  0  0  0  0  0999 V2000
   -6.5190    1.0996    0.3369 C   0  0  0  0  0  0  0  0  0  0  0  0
   -5.0729    1.1846   -0.1246 C   0  0  0  0  0  0  0  0  0  0  0  0
   -4.3800   -0.1758   -0.0491 C   0  0  0  0  0  0  0  0  0  0  0  0
   -2.9249   -0.0860   -0.5149 C   0  0  0  0  0  0  0  0  0  0  0  0
   -2.2328   -1.4485   -0.4344 C   0  0  0  0  0  0  0  0  0  0  0  0
   -0.8082   -1.4421   -0.9963 C   0  0  0  0  0  0  0  0  0  0  0  0
    0.1631   -0.5840   -0.1827 C   0  0  0  0  0  0  0  0  0  0  0  0
    1.5916   -0.7057   -0.7184 C   0  0  0  0  0  0  0  0  0  0  0  0
    2.5643    0.1541    0.0905 C   0  0  0  0  0  0  0  0  0  0  0  0
    3.9924    0.0323   -0.4449 C   0  0  0  0  0  0  0  0  0  0  0  0
    4.9646    0.8945    0.3651 C   0  0  0  0  0  0  0  0  0  0  0  0
    6.3891    0.8165   -0.1729 C   0  0  0  0  0  0  0  0  0  0  0  0
    6.8959   -0.5072   -0.0770 O   0  0  0  0  0  0  0  0  0  0  0  0
  1  2  1  0
  2  3  1  0
  3  4  1  0
  4  5  1  0
  5  6  1  0
  6  7  1  0
  7  8  1  0
  8  9  1  0
  9 10  1  0
 10 11  1  0
 11 12  1  0
 12 13  1  0
M  END
>  <target>  (925) 
-4.8

$$$$

     RDKit          3D

 23 25  0  0  0  0  0  0  0  0999 V2000
   -0.5107   -2.4471   -0.8567 C   0  0  0  0  0  0  0  0  0  0  0  0
   -0.7699   -1.8107    0.5080 C   0  0  0  0  0  0  0  0  0  0  0  0
   -1.2775   -0.4188    0.4041 N   0  0  0  0  0  0  0  0  0  0  0  0
   -0.2607    0.5458    0.2782 C   0  0  0  0  0  0  0  0  0  0  0  0
    1.0136    0.0739    0.1077 N   0  0  0  0  0  0  0  0  0  0  0  0
    2.0802    0.8841   -0.0383 C   0  0  0  0  0  0  0  0  0  0  0  0
    3.3716    0.3372   -0.2093 N   0  0  0  0  0  0  0  0  0  0  0  0
    3.9206    0.6851   -1.5251 C   0  0  0  0  0  0  0  0  0  0  0  0
    3.4475   -1.1145    0.0940 C   0  0  0  0  0  0  0  0  0  0  0  0
    3.4126   -1.3539    1.6105 C   0  0  0  0  0  0  0  0  0  0  0  0
    4.4350   -0.5759    2.2398 O   0  0  0  0  0  0  0  0  0  0  0  0
    1.9212    2.2540    0.0190 C   0  0  0  0  0  0  0  0  0  0  0  0
    0.6488    2.7705    0.2106 C   0  0  0  0  0  0  0  0  0  0  0  0
   -0.4626    1.9217    0.3354 C   0  0  0  0  0  0  0  0  0  0  0  0
   -1.6607    2.5908    0.5693 N   0  0  0  0  0  0  0  0  0  0  0  0
   -2.9516    2.1875    0.6506 C   0  0  0  0  0  0  0  0  0  0  0  0
   -3.7715    3.0600    0.9566 O   0  0  0  0  0  0  0  0  0  0  0  0
   -3.4290    0.8329    0.3383 C   0  0  0  0  0  0  0  0  0  0  0  0
   -4.8321    0.7458    0.1498 C   0  0  0  0  0  0  0  0  0  0  0  0
   -5.4575   -0.4632   -0.1019 C   0  0  0  0  0  0  0  0  0  0  0  0
   -4.6566   -1.5703   -0.1498 C   0  0  0  0  0  0  0  0  0  0  0  0
   -3.3208   -1.5170    0.0265 N   0  0  0  0  0  0  0  0  0  0  0  0
   -2.6719   -0.3300    0.2607 C   0  0  0  0  0  0  0  0  0  0  0  0
  1  2  1  0
  2  3  1  0
  3  4  1  0
  4  5  2  0
  5  6  1  0
  6  7  1  0
  7  8  1  0
  7  9  1  0
  9 10  1  0
 10 11  1  0
  6 12  2  0
 12 13  1  0
 13 14  2  0
 14 15  1  0
 15 16  1  0
 16 17  2  0
 16 18  1  0
 18 19  2  0
 19 20  1  0
 20 21  2  0
 21 22  1  0
 22 23  2  0
 14  4  1  0
 23  3  1  0
 23 18  1  0
M  END
>  <target>  (926) 
-3.36

$$$$

     RDKit          3D

  7  6  0  0  0  0  0  0  0  0999 V2000
    2.8507   -0.0974   -0.2498 C   0  0  0  0  0  0  0  0  0  0  0  0
    1.4076   -0.0143   -0.7259 C   0  0  0  0  0  0  0  0  0  0  0  0
    0.4275   -0.1116    0.4490 C   0  0  0  0  0  0  0  0  0  0  0  0
   -1.0602   -0.1233    0.0400 C   0  0  0  0  0  0  0  0  0  0  0  0
   -1.4711    1.1476   -0.7048 C   0  0  0  0  0  0  0  0  0  0  0  0
   -1.9406   -0.3010    1.2814 C   0  0  0  0  0  0  0  0  0  0  0  0
   -1.3043   -1.2284   -0.8327 O   0  0  0  0  0  0  0  0  0  0  0  0
  1  2  1  0
  2  3  1  0
  3  4  1  0
  4  5  1  0
  4  6  1  0
  4  7  1  0
M  END
>  <target>  (927) 
-0.49

$$$$

     RDKit          3D

  9  9  0  0  0  0  0  0  0  0999 V2000
    2.1755   -0.6885   -0.3751 N   0  0  0  0  0  0  0  0  0  0  0  0
    0.8554   -0.3710   -0.1821 C   0  0  0  0  0  0  0  0  0  0  0  0
    0.0195   -1.3632   -0.0649 N   0  0  0  0  0  0  0  0  0  0  0  0
   -1.3173   -1.0997    0.1243 C   0  0  0  0  0  0  0  0  0  0  0  0
   -2.1607   -1.9836    0.2422 O   0  0  0  0  0  0  0  0  0  0  0  0
   -1.7243    0.2164    0.1898 N   0  0  0  0  0  0  0  0  0  0  0  0
   -0.8714    1.2771    0.0814 C   0  0  0  0  0  0  0  0  0  0  0  0
    0.4247    1.0495   -0.1024 C   0  0  0  0  0  0  0  0  0  0  0  0
    1.3565    2.0113   -0.2087 F   0  0  0  0  0  0  0  0  0  0  0  0
  1  2  1  0
  2  3  2  0
  3  4  1  0
  4  5  2  0
  4  6  1  0
  6  7  1  0
  7  8  2  0
  8  9  1  0
  8  2  1  0
M  END
>  <target>  (928) 
-0.972

$$$$

     RDKit          3D

 21 21  0  0  0  0  0  0  0  0999 V2000
    7.1068    1.1228    0.2581 C   0  0  0  0  0  0  0  0  0  0  0  0
    5.6659    0.6612    0.4104 C   0  0  0  0  0  0  0  0  0  0  0  0
    4.8358    1.0024   -0.8295 C   0  0  0  0  0  0  0  0  0  0  0  0
    3.3920    0.5149   -0.7113 C   0  0  0  0  0  0  0  0  0  0  0  0
    2.7597    1.2023    0.3672 O   0  0  0  0  0  0  0  0  0  0  0  0
    1.4438    0.9177    0.6104 C   0  0  0  0  0  0  0  0  0  0  0  0
    0.8844    1.6393    1.6652 C   0  0  0  0  0  0  0  0  0  0  0  0
   -0.4461    1.4422    2.0254 C   0  0  0  0  0  0  0  0  0  0  0  0
   -1.2301    0.5255    1.3142 C   0  0  0  0  0  0  0  0  0  0  0  0
   -2.6312    0.3754    1.7483 C   0  0  0  0  0  0  0  0  0  0  0  0
   -2.9548    0.0705    2.8854 O   0  0  0  0  0  0  0  0  0  0  0  0
   -3.4580    0.7202    0.7312 O   0  0  0  0  0  0  0  0  0  0  0  0
   -4.8480    0.6171    1.0504 C   0  0  0  0  0  0  0  0  0  0  0  0
   -5.6446    0.9198   -0.2035 C   0  0  0  0  0  0  0  0  0  0  0  0
   -0.6922   -0.2290    0.2492 C   0  0  0  0  0  0  0  0  0  0  0  0
    0.6607   -0.0134   -0.0827 C   0  0  0  0  0  0  0  0  0  0  0  0
   -1.4707   -1.2101   -0.4058 N   0  0  0  0  0  0  0  0  0  0  0  0
   -1.3889   -2.5115    0.2850 C   0  0  0  0  0  0  0  0  0  0  0  0
   -2.7531   -3.1871    0.2968 C   0  0  0  0  0  0  0  0  0  0  0  0
   -1.3868   -1.2666   -1.8756 C   0  0  0  0  0  0  0  0  0  0  0  0
   -1.9389    0.0000   -2.5158 C   0  0  0  0  0  0  0  0  0  0  0  0
  1  2  1  0
  2  3  1  0
  3  4  1  0
  4  5  1  0
  5  6  1  0
  6  7  2  0
  7  8  1  0
  8  9  2  0
  9 10  1  0
 10 11  2  0
 10 12  1  0
 12 13  1  0
 13 14  1  0
  9 15  1  0
 15 16  2  0
 15 17  1  0
 17 18  1  0
 18 19  1  0
 17 20  1  0
 20 21  1  0
 16  6  1  0
M  END
>  <target>  (929) 
-3.84

$$$$

     RDKit          3D

  9  8  0  0  0  0  0  0  0  0999 V2000
   -4.2166   -0.2259    0.2335 C   0  0  0  0  0  0  0  0  0  0  0  0
   -2.9002   -0.2223   -0.5271 C   0  0  0  0  0  0  0  0  0  0  0  0
   -1.7108   -0.0273    0.4130 C   0  0  0  0  0  0  0  0  0  0  0  0
   -0.3872   -0.0239   -0.3568 C   0  0  0  0  0  0  0  0  0  0  0  0
    0.8039    0.1653    0.5918 C   0  0  0  0  0  0  0  0  0  0  0  0
    2.1721    0.2692   -0.1140 C   0  0  0  0  0  0  0  0  0  0  0  0
    3.2725    0.5322    0.9193 C   0  0  0  0  0  0  0  0  0  0  0  0
    2.5112   -0.9862   -0.9187 C   0  0  0  0  0  0  0  0  0  0  0  0
    2.1542    1.3698   -1.0253 O   0  0  0  0  0  0  0  0  0  0  0  0
  1  2  1  0
  2  3  1  0
  3  4  1  0
  4  5  1  0
  5  6  1  0
  6  7  1  0
  6  8  1  0
  6  9  1  0
M  END
>  <target>  (930) 
-1.72

$$$$

     RDKit          3D

 12 12  0  0  0  0  0  0  0  0999 V2000
   -2.8878    0.3475    0.3565 C   0  0  0  0  0  0  0  0  0  0  0  0
   -1.3988    0.1694    0.1520 C   0  0  0  0  0  0  0  0  0  0  0  0
   -0.8563   -1.1290   -0.0206 C   0  0  0  0  0  0  0  0  0  0  0  0
   -1.7736   -2.3312   -0.0848 C   0  0  0  0  0  0  0  0  0  0  0  0
    0.5484   -1.3027   -0.1030 C   0  0  0  0  0  0  0  0  0  0  0  0
    1.1371   -2.6954   -0.1706 C   0  0  0  0  0  0  0  0  0  0  0  0
    1.3988   -0.1694   -0.1520 C   0  0  0  0  0  0  0  0  0  0  0  0
    2.8878   -0.3475   -0.3565 C   0  0  0  0  0  0  0  0  0  0  0  0
    0.8563    1.1290    0.0206 C   0  0  0  0  0  0  0  0  0  0  0  0
    1.7736    2.3312    0.0848 C   0  0  0  0  0  0  0  0  0  0  0  0
   -0.5484    1.3027    0.1030 C   0  0  0  0  0  0  0  0  0  0  0  0
   -1.1371    2.6954    0.1706 C   0  0  0  0  0  0  0  0  0  0  0  0
  1  2  1  0
  2  3  2  0
  3  4  1  0
  3  5  1  0
  5  6  1  0
  5  7  2  0
  7  8  1  0
  7  9  1  0
  9 10  1  0
  9 11  2  0
 11 12  1  0
 11  2  1  0
M  END
>  <target>  (931) 
-5.23

$$$$

     RDKit          3D

 11 11  0  0  0  0  0  0  0  0999 V2000
   -2.6014    1.3204   -0.2804 C   0  0  0  0  0  0  0  0  0  0  0  0
   -1.9974   -0.0871   -0.2620 C   0  0  0  0  0  0  0  0  0  0  0  0
   -2.6341   -0.9382    0.8406 C   0  0  0  0  0  0  0  0  0  0  0  0
   -0.4833   -0.0441   -0.1263 C   0  0  0  0  0  0  0  0  0  0  0  0
    0.1196    0.5282    1.0065 C   0  0  0  0  0  0  0  0  0  0  0  0
    1.5104    0.5719    1.1405 C   0  0  0  0  0  0  0  0  0  0  0  0
    2.3358    0.0527    0.1395 C   0  0  0  0  0  0  0  0  0  0  0  0
    3.8269    0.0693    0.2991 C   0  0  0  0  0  0  0  0  0  0  0  0
    1.7477   -0.5345   -0.9861 C   0  0  0  0  0  0  0  0  0  0  0  0
    0.3561   -0.5751   -1.1141 C   0  0  0  0  0  0  0  0  0  0  0  0
   -0.1999   -1.1477   -2.2248 O   0  0  0  0  0  0  0  0  0  0  0  0
  1  2  1  0
  2  3  1  0
  2  4  1  0
  4  5  2  0
  5  6  1  0
  6  7  2  0
  7  8  1  0
  7  9  1  0
  9 10  2  0
 10 11  1  0
 10  4  1  0
M  END
>  <target>  (932) 
-2.22

$$$$

     RDKit          3D

 10 11  0  0  0  0  0  0  0  0999 V2000
    2.2340    0.4103    0.1070 C   0  0  0  0  0  0  0  0  0  0  0  0
    2.0826   -0.9446   -0.0935 C   0  0  0  0  0  0  0  0  0  0  0  0
    0.8681   -1.5303   -0.2045 N   0  0  0  0  0  0  0  0  0  0  0  0
   -0.2142   -0.7481   -0.1135 C   0  0  0  0  0  0  0  0  0  0  0  0
   -1.4118   -1.3233   -0.2225 N   0  0  0  0  0  0  0  0  0  0  0  0
   -2.4821   -0.5281   -0.1294 C   0  0  0  0  0  0  0  0  0  0  0  0
   -2.4601    0.7935    0.0636 N   0  0  0  0  0  0  0  0  0  0  0  0
   -1.2273    1.3340    0.1683 C   0  0  0  0  0  0  0  0  0  0  0  0
   -0.0452    0.6328    0.0912 C   0  0  0  0  0  0  0  0  0  0  0  0
    1.1714    1.2316    0.2041 N   0  0  0  0  0  0  0  0  0  0  0  0
  1  2  2  0
  2  3  1  0
  3  4  2  0
  4  5  1  0
  5  6  2  0
  6  7  1  0
  7  8  2  0
  8  9  1  0
  9 10  2  0
  9  4  1  0
 10  1  1  0
M  END
>  <target>  (933) 
0.02

$$$$

     RDKit          3D

 18 18  0  0  0  0  0  0  0  0999 V2000
   -2.3446    3.1486    2.5534 C   0  0  0  0  0  0  0  0  0  0  0  0
   -2.0505    2.5824    1.1793 C   0  0  0  0  0  0  0  0  0  0  0  0
   -1.9569    1.1714    1.2840 O   0  0  0  0  0  0  0  0  0  0  0  0
   -1.3443    0.3440    0.0317 P   0  0  0  0  0  0  0  0  0  0  0  0
   -2.3255    0.4828   -1.6369 S   0  0  0  0  0  0  0  0  0  0  0  0
   -1.2140   -1.1342    0.6821 O   0  0  0  0  0  0  0  0  0  0  0  0
   -2.4000   -1.8115    1.0623 C   0  0  0  0  0  0  0  0  0  0  0  0
   -2.0154   -3.0581    1.8325 C   0  0  0  0  0  0  0  0  0  0  0  0
    0.1891    0.8545    0.0392 O   0  0  0  0  0  0  0  0  0  0  0  0
    1.2248    0.3243   -0.6761 C   0  0  0  0  0  0  0  0  0  0  0  0
    1.1621   -0.8679   -1.3963 C   0  0  0  0  0  0  0  0  0  0  0  0
    2.2862   -1.3254   -2.0936 C   0  0  0  0  0  0  0  0  0  0  0  0
    3.4740   -0.5834   -2.0613 C   0  0  0  0  0  0  0  0  0  0  0  0
    3.5435    0.6108   -1.3347 C   0  0  0  0  0  0  0  0  0  0  0  0
    2.4149    1.0575   -0.6429 C   0  0  0  0  0  0  0  0  0  0  0  0
    4.6547   -1.0635   -2.7902 N   0  0  0  0  0  0  0  0  0  0  0  0
    4.5578   -2.1371   -3.4014 O   0  0  0  0  0  0  0  0  0  0  0  0
    5.6792   -0.3674   -2.7496 O   0  0  0  0  0  0  0  0  0  0  0  0
  1  2  1  0
  2  3  1  0
  3  4  1  0
  4  5  2  0
  4  6  1  0
  6  7  1  0
  7  8  1  0
  4  9  1  0
  9 10  1  0
 10 11  2  0
 11 12  1  0
 12 13  2  0
 13 14  1  0
 14 15  2  0
 13 16  1  0
 16 17  1  0
 16 18  2  0
 15 10  1  0
M  CHG  2  16   1  17  -1
M  END
>  <target>  (934) 
-4.66

$$$$

     RDKit          3D

  1  0  0  0  0  0  0  0  0  0999 V2000
    0.0000   -0.0000    0.0000 C   0  0  0  0  0  0  0  0  0  0  0  0
M  END
>  <target>  (935) 
-0.9

$$$$

     RDKit          3D

  9 10  0  0  0  0  0  0  0  0999 V2000
    2.3684   -0.3433    0.2949 C   0  0  0  0  0  0  0  0  0  0  0  0
    2.2299    0.9822   -0.1484 C   0  0  0  0  0  0  0  0  0  0  0  0
    0.9701    1.5005   -0.4626 C   0  0  0  0  0  0  0  0  0  0  0  0
   -0.1340    0.6852   -0.3017 C   0  0  0  0  0  0  0  0  0  0  0  0
   -1.4705    1.0194   -0.6335 N   0  0  0  0  0  0  0  0  0  0  0  0
   -2.2402   -0.0618    0.0081 C   0  0  0  0  0  0  0  0  0  0  0  0
   -1.3254   -1.2957    0.1190 C   0  0  0  0  0  0  0  0  0  0  0  0
    0.0100   -0.6370    0.1187 C   0  0  0  0  0  0  0  0  0  0  0  0
    1.2505   -1.1699    0.4231 C   0  0  0  0  0  0  0  0  0  0  0  0
  1  2  2  0
  2  3  1  0
  3  4  2  0
  4  5  1  0
  5  6  1  0
  6  7  1  0
  7  8  1  0
  8  9  2  0
  8  4  1  0
  9  1  1  0
M  END
>  <target>  (936) 
-1.04

$$$$

     RDKit          3D

 13 14  0  0  0  0  0  0  0  0999 V2000
   -2.5764    2.4336    0.8012 O   0  0  0  0  0  0  0  0  0  0  0  0
   -1.8426    2.0508   -0.1206 N   0  0  0  0  0  0  0  0  0  0  0  0
   -1.5146    2.7262   -1.1054 O   0  0  0  0  0  0  0  0  0  0  0  0
   -1.3567    0.6839   -0.0515 C   0  0  0  0  0  0  0  0  0  0  0  0
   -2.3296   -0.3256   -0.0115 C   0  0  0  0  0  0  0  0  0  0  0  0
   -1.9238   -1.6517    0.0465 C   0  0  0  0  0  0  0  0  0  0  0  0
   -0.5622   -1.9580    0.0680 C   0  0  0  0  0  0  0  0  0  0  0  0
    0.4195   -0.9495    0.0376 C   0  0  0  0  0  0  0  0  0  0  0  0
    1.7808   -1.2938    0.0708 C   0  0  0  0  0  0  0  0  0  0  0  0
    2.7725   -0.3141    0.0517 C   0  0  0  0  0  0  0  0  0  0  0  0
    2.4172    1.0267    0.0007 C   0  0  0  0  0  0  0  0  0  0  0  0
    1.0692    1.3886   -0.0339 C   0  0  0  0  0  0  0  0  0  0  0  0
    0.0372    0.4135   -0.0218 C   0  0  0  0  0  0  0  0  0  0  0  0
  1  2  1  0
  2  3  2  0
  2  4  1  0
  4  5  2  0
  5  6  1  0
  6  7  2  0
  7  8  1  0
  8  9  2  0
  9 10  1  0
 10 11  2  0
 11 12  1  0
 12 13  2  0
 13  4  1  0
 13  8  1  0
M  CHG  2   1  -1   2   1
M  END
>  <target>  (937) 
-3.54

$$$$

     RDKit          3D

  7  6  0  0  0  0  0  0  0  0999 V2000
   -1.3901   -1.7987   -0.2900 C   0  0  0  0  0  0  0  0  0  0  0  0
   -1.3641   -0.2934   -0.5223 C   0  0  0  0  0  0  0  0  0  0  0  0
   -0.2094    0.3966    0.2183 C   0  0  0  0  0  0  0  0  0  0  0  0
   -0.3374    1.9149    0.1252 C   0  0  0  0  0  0  0  0  0  0  0  0
    1.1498   -0.0096   -0.3448 C   0  0  0  0  0  0  0  0  0  0  0  0
    1.3288   -0.2223   -1.5439 O   0  0  0  0  0  0  0  0  0  0  0  0
    2.2898   -0.1010    0.6371 C   0  0  0  0  0  0  0  0  0  0  0  0
  1  2  1  0
  2  3  1  0
  3  4  1  0
  3  5  1  0
  5  6  2  0
  5  7  1  0
M  END
>  <target>  (938) 
-0.67

$$$$

     RDKit          3D

 11 12  0  0  0  0  0  0  0  0999 V2000
    2.4478   -0.1509    0.2580 N   0  0  0  0  0  0  0  0  0  0  0  0
    1.0919   -0.4219    0.1587 C   0  0  0  0  0  0  0  0  0  0  0  0
    0.6880   -1.6998    0.1790 N   0  0  0  0  0  0  0  0  0  0  0  0
   -0.6272   -1.9430    0.0654 C   0  0  0  0  0  0  0  0  0  0  0  0
   -1.0076   -3.2503    0.0820 O   0  0  0  0  0  0  0  0  0  0  0  0
   -1.6394   -1.0870   -0.0752 N   0  0  0  0  0  0  0  0  0  0  0  0
   -1.2124    0.1880   -0.0832 C   0  0  0  0  0  0  0  0  0  0  0  0
   -2.0111    1.2938   -0.2012 N   0  0  0  0  0  0  0  0  0  0  0  0
   -1.1864    2.3163   -0.1399 C   0  0  0  0  0  0  0  0  0  0  0  0
    0.1132    1.9122    0.0039 N   0  0  0  0  0  0  0  0  0  0  0  0
    0.1186    0.5462    0.0297 C   0  0  0  0  0  0  0  0  0  0  0  0
  1  2  1  0
  2  3  2  0
  3  4  1  0
  4  5  1  0
  4  6  2  0
  6  7  1  0
  7  8  1  0
  8  9  2  0
  9 10  1  0
 10 11  1  0
 11  2  1  0
 11  7  2  0
M  END
>  <target>  (939) 
-3.4010000000000002

$$$$

     RDKit          3D

 35 39  0  0  0  0  0  0  0  0999 V2000
   -0.1277    0.6776    1.8489 O   0  0  0  0  0  0  0  0  0  0  0  0
    0.1828    0.4031    0.4748 C   0  0  0  0  0  0  0  0  0  0  0  0
   -0.3512   -0.9824    0.0737 C   0  0  0  0  0  0  0  0  0  0  0  0
   -1.8020   -1.2383    0.5455 C   0  0  0  0  0  0  0  0  0  0  0  0
   -2.3363   -2.6534    0.3059 C   0  0  0  0  0  0  0  0  0  0  0  0
   -1.8831   -3.4783   -0.7330 C   0  0  0  0  0  0  0  0  0  0  0  0
   -2.4159   -4.7576   -0.9134 C   0  0  0  0  0  0  0  0  0  0  0  0
   -3.4110   -5.2305   -0.0616 C   0  0  0  0  0  0  0  0  0  0  0  0
   -3.8795   -4.4236    0.9707 C   0  0  0  0  0  0  0  0  0  0  0  0
   -3.3484   -3.1456    1.1522 C   0  0  0  0  0  0  0  0  0  0  0  0
   -2.7870   -0.1683    0.0927 C   0  0  0  0  0  0  0  0  0  0  0  0
   -3.3025    0.7593    0.9210 C   0  0  0  0  0  0  0  0  0  0  0  0
   -2.8848    0.9372    2.2258 O   0  0  0  0  0  0  0  0  0  0  0  0
   -4.3708    1.6530    0.4815 C   0  0  0  0  0  0  0  0  0  0  0  0
   -4.9738    2.6011    1.3162 C   0  0  0  0  0  0  0  0  0  0  0  0
   -6.0150    3.4061    0.8416 C   0  0  0  0  0  0  0  0  0  0  0  0
   -6.4645    3.2705   -0.4721 C   0  0  0  0  0  0  0  0  0  0  0  0
   -5.8716    2.3322   -1.3131 C   0  0  0  0  0  0  0  0  0  0  0  0
   -4.8347    1.5387   -0.8235 C   0  0  0  0  0  0  0  0  0  0  0  0
   -4.2560    0.6229   -1.7151 O   0  0  0  0  0  0  0  0  0  0  0  0
   -3.1769   -0.1661   -1.3426 C   0  0  0  0  0  0  0  0  0  0  0  0
   -2.5511   -0.7998   -2.1861 O   0  0  0  0  0  0  0  0  0  0  0  0
    1.6731    0.5374    0.2426 C   0  0  0  0  0  0  0  0  0  0  0  0
    2.1576    1.3505   -0.7887 C   0  0  0  0  0  0  0  0  0  0  0  0
    3.5337    1.4813   -1.0061 C   0  0  0  0  0  0  0  0  0  0  0  0
    4.4641    0.8021   -0.2044 C   0  0  0  0  0  0  0  0  0  0  0  0
    3.9704   -0.0159    0.8234 C   0  0  0  0  0  0  0  0  0  0  0  0
    2.5959   -0.1477    1.0450 C   0  0  0  0  0  0  0  0  0  0  0  0
    5.9113    0.9419   -0.4358 C   0  0  0  0  0  0  0  0  0  0  0  0
    6.5167    2.2096   -0.4863 C   0  0  0  0  0  0  0  0  0  0  0  0
    7.8913    2.3456   -0.7051 C   0  0  0  0  0  0  0  0  0  0  0  0
    8.6781    1.2105   -0.8775 C   0  0  0  0  0  0  0  0  0  0  0  0
   10.5360    1.3907   -1.1740 Br  0  0  0  0  0  0  0  0  0  0  0  0
    8.1040   -0.0567   -0.8327 C   0  0  0  0  0  0  0  0  0  0  0  0
    6.7291   -0.1876   -0.6125 C   0  0  0  0  0  0  0  0  0  0  0  0
  1  2  1  0
  2  3  1  0
  3  4  1  0
  4  5  1  0
  5  6  2  0
  6  7  1  0
  7  8  2  0
  8  9  1  0
  9 10  2  0
  4 11  1  0
 11 12  2  0
 12 13  1  0
 12 14  1  0
 14 15  2  0
 15 16  1  0
 16 17  2  0
 17 18  1  0
 18 19  2  0
 19 20  1  0
 20 21  1  0
 21 22  2  0
  2 23  1  0
 23 24  2  0
 24 25  1  0
 25 26  2  0
 26 27  1  0
 27 28  2  0
 26 29  1  0
 29 30  2  0
 30 31  1  0
 31 32  2  0
 32 33  1  0
 32 34  1  0
 34 35  2  0
 10  5  1  0
 19 14  1  0
 21 11  1  0
 28 23  1  0
 35 29  1  0
M  END
>  <target>  (940) 
-4.445

$$$$

     RDKit          3D

  4  3  0  0  0  0  0  0  0  0999 V2000
   -0.6536    0.0079    0.0056 C   0  0  0  0  0  0  0  0  0  0  0  0
    0.8336   -0.0117   -0.0146 N   0  0  0  0  0  0  0  0  0  0  0  0
    1.4064    1.0569   -0.2583 O   0  0  0  0  0  0  0  0  0  0  0  0
    1.3848   -1.0906    0.2336 O   0  0  0  0  0  0  0  0  0  0  0  0
  1  2  1  0
  2  3  1  0
  2  4  2  0
M  CHG  2   2   1   3  -1
M  END
>  <target>  (941) 
0.26

$$$$

     RDKit          3D

 16 15  0  0  0  0  0  0  0  0999 V2000
   -2.0516   -2.1738   -0.3940 C   0  0  0  0  0  0  0  0  0  0  0  0
   -1.3125   -1.1762    0.5028 C   0  0  0  0  0  0  0  0  0  0  0  0
   -2.1841   -0.7137    1.6729 C   0  0  0  0  0  0  0  0  0  0  0  0
   -0.7739   -0.0232   -0.2682 N   0  0  0  0  0  0  0  0  0  0  0  0
   -1.7518    0.8283   -0.9877 C   0  0  0  0  0  0  0  0  0  0  0  0
   -1.7860    2.2664   -0.4618 C   0  0  0  0  0  0  0  0  0  0  0  0
   -1.5658    0.7851   -2.5067 C   0  0  0  0  0  0  0  0  0  0  0  0
    0.5816    0.3271   -0.3438 C   0  0  0  0  0  0  0  0  0  0  0  0
    1.0023    1.2752   -0.9970 O   0  0  0  0  0  0  0  0  0  0  0  0
    1.7280   -0.6523    0.5619 S   0  0  0  0  0  0  0  0  0  0  0  0
    3.2674    0.1871    0.0843 C   0  0  0  0  0  0  0  0  0  0  0  0
    4.4456   -0.4957    0.7298 C   0  0  0  0  0  0  0  0  0  0  0  0
    5.0439   -1.8550   -0.1951 Cl  0  0  0  0  0  0  0  0  0  0  0  0
    5.0436   -0.1099    1.8722 C   0  0  0  0  0  0  0  0  0  0  0  0
    6.4216   -0.9270    2.5410 Cl  0  0  0  0  0  0  0  0  0  0  0  0
    4.4727    1.2415    2.8003 Cl  0  0  0  0  0  0  0  0  0  0  0  0
  1  2  1  0
  2  3  1  0
  2  4  1  0
  4  5  1  0
  5  6  1  0
  5  7  1  0
  4  8  1  0
  8  9  2  0
  8 10  1  0
 10 11  1  0
 11 12  1  0
 12 13  1  0
 12 14  2  3
 14 15  1  0
 14 16  1  0
M  END
>  <target>  (942) 
-4.88

$$$$

     RDKit          3D

  6  5  0  0  0  0  0  0  0  0999 V2000
    2.9769   -0.2071    0.0451 C   0  0  0  0  0  0  0  0  0  0  0  0
    1.7665   -0.7456   -0.1489 C   0  0  0  0  0  0  0  0  0  0  0  0
    0.5059   -0.2432    0.4983 C   0  0  0  0  0  0  0  0  0  0  0  0
   -0.5059    0.2432   -0.5442 C   0  0  0  0  0  0  0  0  0  0  0  0
   -1.7665    0.7456    0.1030 C   0  0  0  0  0  0  0  0  0  0  0  0
   -2.9769    0.2071   -0.0909 C   0  0  0  0  0  0  0  0  0  0  0  0
  1  2  2  0
  2  3  1  0
  3  4  1  0
  4  5  1  0
  5  6  2  0
M  END
>  <target>  (943) 
-2.68

$$$$

     RDKit          3D

  9 10  0  0  0  0  0  0  0  0999 V2000
    2.1777   -0.3996    0.0053 C   0  0  0  0  0  0  0  0  0  0  0  0
    1.9750    0.9786   -0.0275 C   0  0  0  0  0  0  0  0  0  0  0  0
    0.6848    1.5180   -0.0379 C   0  0  0  0  0  0  0  0  0  0  0  0
   -0.3911    0.6227   -0.0142 C   0  0  0  0  0  0  0  0  0  0  0  0
   -1.7471    0.8608   -0.0172 N   0  0  0  0  0  0  0  0  0  0  0  0
   -2.4363   -0.3228    0.0126 C   0  0  0  0  0  0  0  0  0  0  0  0
   -1.5152   -1.3452    0.0353 C   0  0  0  0  0  0  0  0  0  0  0  0
   -0.2183   -0.7614    0.0187 C   0  0  0  0  0  0  0  0  0  0  0  0
    1.0904   -1.2810    0.0286 C   0  0  0  0  0  0  0  0  0  0  0  0
  1  2  2  0
  2  3  1  0
  3  4  2  0
  4  5  1  0
  5  6  1  0
  6  7  2  0
  7  8  1  0
  8  9  2  0
  8  4  1  0
  9  1  1  0
M  END
>  <target>  (944) 
-1.52

$$$$

     RDKit          3D

 21 24  0  0  0  0  0  0  0  0999 V2000
   -3.2643   -1.4895   -0.9403 C   0  0  0  0  0  0  0  0  0  0  0  0
   -2.6762   -0.6551    0.1980 C   0  0  0  0  0  0  0  0  0  0  0  0
   -1.6836   -1.4594    1.0495 C   0  0  0  0  0  0  0  0  0  0  0  0
   -0.3224   -1.6243    0.3808 C   0  0  0  0  0  0  0  0  0  0  0  0
    0.3124   -0.2651    0.0233 C   0  0  0  0  0  0  0  0  0  0  0  0
   -0.6489    0.5353   -0.8933 C   0  0  0  0  0  0  0  0  0  0  0  0
   -0.0523    1.9082   -1.2366 C   0  0  0  0  0  0  0  0  0  0  0  0
    1.3074    1.7713   -1.9059 C   0  0  0  0  0  0  0  0  0  0  0  0
    2.2641    0.9756   -1.0515 C   0  0  0  0  0  0  0  0  0  0  0  0
    3.4833    1.4738   -0.7786 C   0  0  0  0  0  0  0  0  0  0  0  0
    4.5037    0.6858   -0.0505 C   0  0  0  0  0  0  0  0  0  0  0  0
    5.5907    1.1962    0.2078 O   0  0  0  0  0  0  0  0  0  0  0  0
    4.1913   -0.7517    0.2681 C   0  0  0  0  0  0  0  0  0  0  0  0
    2.7082   -0.9199    0.5663 C   0  0  0  0  0  0  0  0  0  0  0  0
    1.7741   -0.3941   -0.5657 C   0  0  0  0  0  0  0  0  0  0  0  0
    1.8356   -1.3743   -1.7597 C   0  0  0  0  0  0  0  0  0  0  0  0
   -2.0770    0.6735   -0.3193 C   0  0  0  0  0  0  0  0  0  0  0  0
   -2.2340    1.6342    0.8688 C   0  0  0  0  0  0  0  0  0  0  0  0
   -3.6245    1.3327    1.4163 C   0  0  0  0  0  0  0  0  0  0  0  0
   -3.7789   -0.1354    1.1123 C   0  0  0  0  0  0  0  0  0  0  0  0
   -4.6903   -0.8229    1.5567 O   0  0  0  0  0  0  0  0  0  0  0  0
  1  2  1  0
  2  3  1  0
  3  4  1  0
  4  5  1  0
  5  6  1  0
  6  7  1  0
  7  8  1  0
  8  9  1  0
  9 10  2  0
 10 11  1  0
 11 12  2  0
 11 13  1  0
 13 14  1  0
 14 15  1  0
 15 16  1  0
  6 17  1  0
 17 18  1  0
 18 19  1  0
 19 20  1  0
 20 21  2  0
 15  5  1  0
 15  9  1  0
 17  2  1  0
 20  2  1  0
M  END
>  <target>  (945) 
-3.69

$$$$

     RDKit          3D

  6  5  0  0  0  0  0  0  0  0999 V2000
   -2.8139   -0.2432    0.1291 C   0  0  0  0  0  0  0  0  0  0  0  0
   -1.4760   -0.3334   -0.5876 C   0  0  0  0  0  0  0  0  0  0  0  0
   -0.3371    0.1989    0.2825 C   0  0  0  0  0  0  0  0  0  0  0  0
    1.0063    0.1061   -0.4439 C   0  0  0  0  0  0  0  0  0  0  0  0
    2.1236    0.6408    0.4052 C   0  0  0  0  0  0  0  0  0  0  0  0
    3.1645   -0.0901    0.8235 C   0  0  0  0  0  0  0  0  0  0  0  0
  1  2  1  0
  2  3  1  0
  3  4  1  0
  4  5  1  0
  5  6  2  0
M  END
>  <target>  (946) 
-3.23

$$$$

     RDKit          3D

 23 24  0  0  0  0  0  0  0  0999 V2000
   -1.8938    2.7660    1.0087 C   0  0  0  0  0  0  0  0  0  0  0  0
   -2.7765    1.6673    0.4742 C   0  0  0  0  0  0  0  0  0  0  0  0
   -4.1578    1.9140    0.4062 C   0  0  0  0  0  0  0  0  0  0  0  0
   -5.0312    0.9371   -0.0535 C   0  0  0  0  0  0  0  0  0  0  0  0
   -4.5301   -0.2862   -0.4830 C   0  0  0  0  0  0  0  0  0  0  0  0
   -3.1489   -0.5597   -0.4572 C   0  0  0  0  0  0  0  0  0  0  0  0
   -2.7183   -1.8692   -1.0623 C   0  0  0  0  0  0  0  0  0  0  0  0
   -2.2665    0.4044    0.0778 C   0  0  0  0  0  0  0  0  0  0  0  0
   -0.8657    0.2041    0.1887 N   0  0  0  0  0  0  0  0  0  0  0  0
   -0.2430   -0.9638    0.5882 C   0  0  0  0  0  0  0  0  0  0  0  0
   -0.7922   -1.9773    1.0100 O   0  0  0  0  0  0  0  0  0  0  0  0
    1.2503   -0.9408    0.5947 C   0  0  0  0  0  0  0  0  0  0  0  0
    1.9727   -0.0666   -0.2288 C   0  0  0  0  0  0  0  0  0  0  0  0
    3.3804   -0.0604   -0.1981 C   0  0  0  0  0  0  0  0  0  0  0  0
    4.0733   -0.9306    0.6470 C   0  0  0  0  0  0  0  0  0  0  0  0
    5.7942   -1.0096    0.7542 Cl  0  0  0  0  0  0  0  0  0  0  0  0
    3.3519   -1.8177    1.4515 C   0  0  0  0  0  0  0  0  0  0  0  0
    1.9573   -1.8286    1.4177 C   0  0  0  0  0  0  0  0  0  0  0  0
    1.3456   -2.7476    2.2281 O   0  0  0  0  0  0  0  0  0  0  0  0
    4.2270    1.0911   -1.2362 S   0  0  0  0  0  0  0  0  0  0  0  0
    5.1034    0.1083   -2.2713 N   0  0  0  0  0  0  0  0  0  0  0  0
    3.2503    1.7443   -2.0793 O   0  0  0  0  0  0  0  0  0  0  0  0
    5.1654    1.8470   -0.4446 O   0  0  0  0  0  0  0  0  0  0  0  0
  1  2  1  0
  2  3  2  0
  3  4  1  0
  4  5  2  0
  5  6  1  0
  6  7  1  0
  6  8  2  0
  8  9  1  0
  9 10  1  0
 10 11  2  0
 10 12  1  0
 12 13  2  0
 13 14  1  0
 14 15  2  0
 15 16  1  0
 15 17  1  0
 17 18  2  0
 18 19  1  0
 14 20  1  0
 20 21  1  0
 20 22  2  0
 20 23  2  0
  8  2  1  0
 18 12  1  0
M  END
>  <target>  (947) 
-3.79

$$$$

     RDKit          3D

  8  8  0  0  0  0  0  0  0  0999 V2000
   -3.0047    0.1844    0.0745 C   0  0  0  0  0  0  0  0  0  0  0  0
   -1.8274   -0.5524   -0.5480 C   0  0  0  0  0  0  0  0  0  0  0  0
   -0.4989   -0.3392    0.2012 C   0  0  0  0  0  0  0  0  0  0  0  0
    0.5874   -1.2462   -0.4029 C   0  0  0  0  0  0  0  0  0  0  0  0
    1.9392   -1.0526    0.2789 C   0  0  0  0  0  0  0  0  0  0  0  0
    2.3768    0.4071    0.2495 C   0  0  0  0  0  0  0  0  0  0  0  0
    1.3139    1.3181    0.8524 C   0  0  0  0  0  0  0  0  0  0  0  0
   -0.0445    1.1296    0.1792 C   0  0  0  0  0  0  0  0  0  0  0  0
  1  2  1  0
  2  3  1  0
  3  4  1  0
  4  5  1  0
  5  6  1  0
  6  7  1  0
  7  8  1  0
  8  3  1  0
M  END
>  <target>  (948) 
-4.25

$$$$

     RDKit          3D

 10  9  0  0  0  0  0  0  0  0999 V2000
   -4.8682   -0.1765    0.7295 C   0  0  0  0  0  0  0  0  0  0  0  0
   -3.6883    0.2689   -0.1197 C   0  0  0  0  0  0  0  0  0  0  0  0
   -2.3577   -0.1369    0.5137 C   0  0  0  0  0  0  0  0  0  0  0  0
   -1.1734    0.3130   -0.3435 C   0  0  0  0  0  0  0  0  0  0  0  0
    0.1582   -0.0930    0.2902 C   0  0  0  0  0  0  0  0  0  0  0  0
    1.3421    0.3567   -0.5668 C   0  0  0  0  0  0  0  0  0  0  0  0
    2.6715   -0.0485    0.0656 C   0  0  0  0  0  0  0  0  0  0  0  0
    3.8671    0.3853   -0.7640 C   0  0  0  0  0  0  0  0  0  0  0  0
    3.7568    0.9953   -1.8264 O   0  0  0  0  0  0  0  0  0  0  0  0
    5.2224    0.0255   -0.2126 C   0  0  0  0  0  0  0  0  0  0  0  0
  1  2  1  0
  2  3  1  0
  3  4  1  0
  4  5  1  0
  5  6  1  0
  6  7  1  0
  7  8  1  0
  8  9  2  0
  8 10  1  0
M  END
>  <target>  (949) 
-2.58

$$$$

     RDKit          3D

 22 24  0  0  0  0  0  0  0  0999 V2000
    6.4760    2.0989   -0.1510 C   0  0  0  0  0  0  0  0  0  0  0  0
    5.9213    0.8347   -0.5200 O   0  0  0  0  0  0  0  0  0  0  0  0
    4.5883    0.7190   -0.2885 C   0  0  0  0  0  0  0  0  0  0  0  0
    3.8830    1.5977    0.1936 O   0  0  0  0  0  0  0  0  0  0  0  0
    4.1707   -0.5184   -0.6766 N   0  0  0  0  0  0  0  0  0  0  0  0
    2.8750   -0.9411   -0.5718 C   0  0  0  0  0  0  0  0  0  0  0  0
    2.4469   -2.1257   -0.9403 N   0  0  0  0  0  0  0  0  0  0  0  0
    1.1005   -2.1298   -0.6666 C   0  0  0  0  0  0  0  0  0  0  0  0
    0.1503   -3.1442   -0.8537 C   0  0  0  0  0  0  0  0  0  0  0  0
   -1.1822   -2.8925   -0.4971 C   0  0  0  0  0  0  0  0  0  0  0  0
   -1.5646   -1.6491    0.0260 C   0  0  0  0  0  0  0  0  0  0  0  0
   -0.6192   -0.6320    0.2469 C   0  0  0  0  0  0  0  0  0  0  0  0
    0.6990   -0.9138   -0.1230 C   0  0  0  0  0  0  0  0  0  0  0  0
    1.8534   -0.1778   -0.0655 N   0  0  0  0  0  0  0  0  0  0  0  0
   -2.9955   -1.4468    0.3763 C   0  0  0  0  0  0  0  0  0  0  0  0
   -3.6458   -2.3872    0.8245 O   0  0  0  0  0  0  0  0  0  0  0  0
   -3.6527   -0.1276    0.1939 C   0  0  0  0  0  0  0  0  0  0  0  0
   -4.6340    0.2632    1.1117 C   0  0  0  0  0  0  0  0  0  0  0  0
   -5.2707    1.4969    0.9701 C   0  0  0  0  0  0  0  0  0  0  0  0
   -4.9358    2.3358   -0.0930 C   0  0  0  0  0  0  0  0  0  0  0  0
   -3.9745    1.9396   -1.0232 C   0  0  0  0  0  0  0  0  0  0  0  0
   -3.3364    0.7058   -0.8864 C   0  0  0  0  0  0  0  0  0  0  0  0
  1  2  1  0
  2  3  1  0
  3  4  2  0
  3  5  1  0
  5  6  1  0
  6  7  2  0
  7  8  1  0
  8  9  2  0
  9 10  1  0
 10 11  2  0
 11 12  1  0
 12 13  2  0
 13 14  1  0
 11 15  1  0
 15 16  2  0
 15 17  1  0
 17 18  2  0
 18 19  1  0
 19 20  2  0
 20 21  1  0
 21 22  2  0
 13  8  1  0
 14  6  1  0
 22 17  1  0
M  END
>  <target>  (950) 
-3.88

$$$$

     RDKit          3D

 14 14  0  0  0  0  0  0  0  0999 V2000
   -3.2869   -1.3492    0.6247 C   0  0  0  0  0  0  0  0  0  0  0  0
   -2.9490    0.0966    0.2785 C   0  0  0  0  0  0  0  0  0  0  0  0
   -4.0549    0.7210   -0.5639 C   0  0  0  0  0  0  0  0  0  0  0  0
   -1.7435    0.1353   -0.5092 O   0  0  0  0  0  0  0  0  0  0  0  0
   -0.5715    0.1153    0.1816 C   0  0  0  0  0  0  0  0  0  0  0  0
   -0.4934    0.0688    1.3988 O   0  0  0  0  0  0  0  0  0  0  0  0
    0.4477    0.1551   -0.7269 N   0  0  0  0  0  0  0  0  0  0  0  0
    1.8327    0.1519   -0.4902 C   0  0  0  0  0  0  0  0  0  0  0  0
    2.4020    0.1049    0.7852 C   0  0  0  0  0  0  0  0  0  0  0  0
    3.7920    0.1046    0.9437 C   0  0  0  0  0  0  0  0  0  0  0  0
    4.6242    0.1514   -0.1725 C   0  0  0  0  0  0  0  0  0  0  0  0
    4.0607    0.1984   -1.4441 C   0  0  0  0  0  0  0  0  0  0  0  0
    5.0824    0.2563   -2.8283 Cl  0  0  0  0  0  0  0  0  0  0  0  0
    2.6745    0.1988   -1.6079 C   0  0  0  0  0  0  0  0  0  0  0  0
  1  2  1  0
  2  3  1  0
  2  4  1  0
  4  5  1  0
  5  6  2  0
  5  7  1  0
  7  8  1  0
  8  9  2  0
  9 10  1  0
 10 11  2  0
 11 12  1  0
 12 13  1  0
 12 14  2  0
 14  8  1  0
M  END
>  <target>  (951) 
-3.38

$$$$

     RDKit          3D

 20 22  0  0  0  0  0  0  0  0999 V2000
    1.1554    2.3648   -2.1631 C   0  0  0  0  0  0  0  0  0  0  0  0
    1.6856    1.6664   -0.9110 C   0  0  0  0  0  0  0  0  0  0  0  0
    0.7943    0.5645   -0.4934 N   0  0  0  0  0  0  0  0  0  0  0  0
   -0.4472    0.9879    0.0437 C   0  0  0  0  0  0  0  0  0  0  0  0
   -0.5750    2.2885    0.4230 N   0  0  0  0  0  0  0  0  0  0  0  0
   -1.7536    2.7080    0.9114 C   0  0  0  0  0  0  0  0  0  0  0  0
   -1.7947    4.3604    1.3629 Cl  0  0  0  0  0  0  0  0  0  0  0  0
   -2.8621    1.9079    1.0475 C   0  0  0  0  0  0  0  0  0  0  0  0
   -2.7452    0.5821    0.6482 C   0  0  0  0  0  0  0  0  0  0  0  0
   -1.5299    0.0835    0.1400 C   0  0  0  0  0  0  0  0  0  0  0  0
   -1.4736   -1.2720   -0.3233 N   0  0  0  0  0  0  0  0  0  0  0  0
   -2.7115   -1.8821   -0.8054 C   0  0  0  0  0  0  0  0  0  0  0  0
   -0.3508   -2.1084   -0.2974 C   0  0  0  0  0  0  0  0  0  0  0  0
   -0.3932   -3.2665   -0.7264 O   0  0  0  0  0  0  0  0  0  0  0  0
    0.9111   -1.7130    0.3540 C   0  0  0  0  0  0  0  0  0  0  0  0
    1.6139   -2.7048    1.0600 C   0  0  0  0  0  0  0  0  0  0  0  0
    2.8555   -2.4205    1.6097 C   0  0  0  0  0  0  0  0  0  0  0  0
    3.3623   -1.1542    1.4150 C   0  0  0  0  0  0  0  0  0  0  0  0
    2.7143   -0.1875    0.7290 N   0  0  0  0  0  0  0  0  0  0  0  0
    1.4855   -0.4558    0.2009 C   0  0  0  0  0  0  0  0  0  0  0  0
  1  2  1  0
  2  3  1  0
  3  4  1  0
  4  5  2  0
  5  6  1  0
  6  7  1  0
  6  8  2  0
  8  9  1  0
  9 10  2  0
 10 11  1  0
 11 12  1  0
 11 13  1  0
 13 14  2  0
 13 15  1  0
 15 16  2  0
 16 17  1  0
 17 18  2  0
 18 19  1  0
 19 20  2  0
 10  4  1  0
 20  3  1  0
 20 15  1  0
M  END
>  <target>  (952) 
-4.114

$$$$

     RDKit          3D

 15 16  0  0  0  0  0  0  0  0999 V2000
    4.5122    0.7503    0.5693 C   0  0  0  0  0  0  0  0  0  0  0  0
    3.3519    0.5406   -0.2523 N   0  0  0  0  0  0  0  0  0  0  0  0
    2.1991   -0.0012    0.2477 C   0  0  0  0  0  0  0  0  0  0  0  0
    2.0113   -0.2621    1.4277 O   0  0  0  0  0  0  0  0  0  0  0  0
    1.3115   -0.2110   -0.7943 O   0  0  0  0  0  0  0  0  0  0  0  0
    0.0830   -0.7559   -0.3896 C   0  0  0  0  0  0  0  0  0  0  0  0
    0.0101   -2.1368   -0.1917 C   0  0  0  0  0  0  0  0  0  0  0  0
   -1.2053   -2.7095    0.1643 C   0  0  0  0  0  0  0  0  0  0  0  0
   -2.3395   -1.9061    0.3042 C   0  0  0  0  0  0  0  0  0  0  0  0
   -2.2789   -0.5177    0.0861 C   0  0  0  0  0  0  0  0  0  0  0  0
   -3.4247    0.2845    0.2169 C   0  0  0  0  0  0  0  0  0  0  0  0
   -3.3659    1.6607   -0.0066 C   0  0  0  0  0  0  0  0  0  0  0  0
   -2.1608    2.2547   -0.3642 C   0  0  0  0  0  0  0  0  0  0  0  0
   -1.0122    1.4729   -0.4973 C   0  0  0  0  0  0  0  0  0  0  0  0
   -1.0484    0.0799   -0.2736 C   0  0  0  0  0  0  0  0  0  0  0  0
  1  2  1  0
  2  3  1  0
  3  4  2  0
  3  5  1  0
  5  6  1  0
  6  7  2  0
  7  8  1  0
  8  9  2  0
  9 10  1  0
 10 11  2  0
 11 12  1  0
 12 13  2  0
 13 14  1  0
 14 15  2  0
 15  6  1  0
 15 10  1  0
M  END
>  <target>  (953) 
-3.2239999999999998

$$$$

     RDKit          3D

  2  1  0  0  0  0  0  0  0  0999 V2000
    0.5984   -0.0028   -0.0167 C   0  0  0  0  0  0  0  0  0  0  0  0
   -0.5984    0.0027    0.0756 C   0  0  0  0  0  0  0  0  0  0  0  0
  1  2  3  0
M  END
>  <target>  (954) 
0.29

$$$$

     RDKit          3D

  8  8  0  0  0  0  0  0  0  0999 V2000
    2.5387   -0.4369   -0.4460 C   0  0  0  0  0  0  0  0  0  0  0  0
    1.2085    0.0749    0.0058 C   0  0  0  0  0  0  0  0  0  0  0  0
    1.1027    1.2525    0.7368 C   0  0  0  0  0  0  0  0  0  0  0  0
   -0.0680    1.7905    1.1437 N   0  0  0  0  0  0  0  0  0  0  0  0
   -1.1925    1.1249    0.8001 C   0  0  0  0  0  0  0  0  0  0  0  0
   -1.2072   -0.0594    0.0724 C   0  0  0  0  0  0  0  0  0  0  0  0
   -2.4953   -0.7168   -0.3072 C   0  0  0  0  0  0  0  0  0  0  0  0
    0.0226   -0.5760   -0.3427 C   0  0  0  0  0  0  0  0  0  0  0  0
  1  2  1  0
  2  3  2  0
  3  4  1  0
  4  5  2  0
  5  6  1  0
  6  7  1  0
  6  8  2  0
  8  2  1  0
M  END
>  <target>  (955) 
0.38

$$$$

     RDKit          3D

  6  6  0  0  0  0  0  0  0  0999 V2000
    1.4937   -0.0742    0.0295 C   0  0  0  0  0  0  0  0  0  0  0  0
    0.6106   -1.2846   -0.0969 C   0  0  0  0  0  0  0  0  0  0  0  0
   -0.7306   -1.2180   -0.1234 C   0  0  0  0  0  0  0  0  0  0  0  0
   -1.4937    0.0742   -0.0295 C   0  0  0  0  0  0  0  0  0  0  0  0
   -0.6106    1.2846    0.0969 C   0  0  0  0  0  0  0  0  0  0  0  0
    0.7306    1.2180    0.1234 C   0  0  0  0  0  0  0  0  0  0  0  0
  1  2  1  0
  2  3  2  0
  3  4  1  0
  4  5  1  0
  5  6  2  0
  6  1  1  0
M  END
>  <target>  (956) 
-2.06

$$$$

     RDKit          3D

 19 18  0  0  0  0  0  0  0  0999 V2000
    3.3792   -3.2640    0.5788 C   0  0  0  0  0  0  0  0  0  0  0  0
    3.6796   -2.4045   -0.6347 C   0  0  0  0  0  0  0  0  0  0  0  0
    2.5091   -1.6667   -1.0210 O   0  0  0  0  0  0  0  0  0  0  0  0
    2.3094   -0.4716   -0.3925 C   0  0  0  0  0  0  0  0  0  0  0  0
    3.0711   -0.0372    0.4631 O   0  0  0  0  0  0  0  0  0  0  0  0
    1.1535    0.1690   -0.8255 N   0  0  0  0  0  0  0  0  0  0  0  0
    0.4839   -0.3255   -2.0170 C   0  0  0  0  0  0  0  0  0  0  0  0
    0.8601    1.4770   -0.4492 C   0  0  0  0  0  0  0  0  0  0  0  0
    0.3442    2.2752   -1.2385 O   0  0  0  0  0  0  0  0  0  0  0  0
    1.2192    1.8960    0.9747 C   0  0  0  0  0  0  0  0  0  0  0  0
   -0.0827    2.9450    1.6912 S   0  0  0  0  0  0  0  0  0  0  0  0
   -1.7890    1.7110    1.6028 P   0  0  0  0  0  0  0  0  0  0  0  0
   -3.2450    2.0673    2.8524 S   0  0  0  0  0  0  0  0  0  0  0  0
   -1.2034    0.1960    1.7487 O   0  0  0  0  0  0  0  0  0  0  0  0
   -2.0875   -0.9066    1.6204 C   0  0  0  0  0  0  0  0  0  0  0  0
   -1.2622   -2.1575    1.3956 C   0  0  0  0  0  0  0  0  0  0  0  0
   -2.2824    1.6300    0.0569 O   0  0  0  0  0  0  0  0  0  0  0  0
   -2.7920    2.8008   -0.5629 C   0  0  0  0  0  0  0  0  0  0  0  0
   -3.1217    2.4768   -2.0060 C   0  0  0  0  0  0  0  0  0  0  0  0
  1  2  1  0
  2  3  1  0
  3  4  1  0
  4  5  2  0
  4  6  1  0
  6  7  1  0
  6  8  1  0
  8  9  2  0
  8 10  1  0
 10 11  1  0
 11 12  1  0
 12 13  2  0
 12 14  1  0
 14 15  1  0
 15 16  1  0
 12 17  1  0
 17 18  1  0
 18 19  1  0
M  END
>  <target>  (957) 
-2.5180000000000002

$$$$

     RDKit          3D

  9  9  0  0  0  0  0  0  0  0999 V2000
   -2.2646   -0.0925   -1.1196 C   0  0  0  0  0  0  0  0  0  0  0  0
   -1.4791   -0.7430    0.0111 C   0  0  0  0  0  0  0  0  0  0  0  0
   -2.1661   -0.5125    1.2404 O   0  0  0  0  0  0  0  0  0  0  0  0
   -0.0588   -0.2297    0.1058 C   0  0  0  0  0  0  0  0  0  0  0  0
    0.2071    1.0953    0.4868 C   0  0  0  0  0  0  0  0  0  0  0  0
    1.5198    1.5612    0.5734 C   0  0  0  0  0  0  0  0  0  0  0  0
    2.5824    0.7094    0.2801 C   0  0  0  0  0  0  0  0  0  0  0  0
    2.3334   -0.6078   -0.1001 C   0  0  0  0  0  0  0  0  0  0  0  0
    1.0206   -1.0757   -0.1873 C   0  0  0  0  0  0  0  0  0  0  0  0
  1  2  1  0
  2  3  1  0
  2  4  1  0
  4  5  2  0
  5  6  1  0
  6  7  2  0
  7  8  1  0
  8  9  2  0
  9  4  1  0
M  END
>  <target>  (958) 
-0.92

$$$$

     RDKit          3D

  5  4  0  0  0  0  0  0  0  0999 V2000
   -1.1852   -0.5178   -0.1518 C   0  0  0  0  0  0  0  0  0  0  0  0
   -0.1506    0.5238    0.2600 C   0  0  0  0  0  0  0  0  0  0  0  0
   -0.5079    2.0569   -0.6041 Cl  0  0  0  0  0  0  0  0  0  0  0  0
    1.2859    0.1071   -0.0508 C   0  0  0  0  0  0  0  0  0  0  0  0
    1.7887   -1.3156    0.9004 Cl  0  0  0  0  0  0  0  0  0  0  0  0
  1  2  1  0
  2  3  1  0
  2  4  1  0
  4  5  1  0
M  END
>  <target>  (959) 
-1.6

$$$$

     RDKit          3D

  9  8  0  0  0  0  0  0  0  0999 V2000
    2.6260    1.4915   -1.6280 C   0  0  0  0  0  0  0  0  0  0  0  0
    1.8650    0.2259   -1.2652 C   0  0  0  0  0  0  0  0  0  0  0  0
    1.1915    0.3513    0.1010 C   0  0  0  0  0  0  0  0  0  0  0  0
    0.4599   -0.9122    0.4652 C   0  0  0  0  0  0  0  0  0  0  0  0
   -0.8762   -1.0781    0.5050 C   0  0  0  0  0  0  0  0  0  0  0  0
   -1.9166   -0.0556    0.1347 C   0  0  0  0  0  0  0  0  0  0  0  0
   -2.4623    0.6717    1.3551 C   0  0  0  0  0  0  0  0  0  0  0  0
   -1.3760   -2.4219    0.9179 C   0  0  0  0  0  0  0  0  0  0  0  0
   -2.5678   -2.6973    0.9829 O   0  0  0  0  0  0  0  0  0  0  0  0
  1  2  1  0
  2  3  1  0
  3  4  1  0
  4  5  2  3
  5  6  1  0
  6  7  1  0
  5  8  1  0
  8  9  2  0
M  END
>  <target>  (960) 
-2.46

$$$$

     RDKit          3D

 14 13  0  0  0  0  0  0  0  0999 V2000
   -3.1990    2.4259   -0.3466 C   0  0  0  0  0  0  0  0  0  0  0  0
   -3.2738    1.1058    0.3933 C   0  0  0  0  0  0  0  0  0  0  0  0
   -2.0288    0.8842    1.0372 O   0  0  0  0  0  0  0  0  0  0  0  0
   -1.5965   -0.6350    1.4366 P   0  0  0  0  0  0  0  0  0  0  0  0
   -2.9044   -1.4954    2.6010 S   0  0  0  0  0  0  0  0  0  0  0  0
   -1.5393   -1.2784   -0.0550 O   0  0  0  0  0  0  0  0  0  0  0  0
   -1.1290   -2.6278   -0.2088 C   0  0  0  0  0  0  0  0  0  0  0  0
   -1.1101   -2.9577   -1.6876 C   0  0  0  0  0  0  0  0  0  0  0  0
    0.3881   -0.4589    2.1253 S   0  0  0  0  0  0  0  0  0  0  0  0
    1.0704    0.9742    1.2409 C   0  0  0  0  0  0  0  0  0  0  0  0
    1.1685    0.8201   -0.2778 C   0  0  0  0  0  0  0  0  0  0  0  0
    2.1796   -0.5769   -0.8936 S   0  0  0  0  0  0  0  0  0  0  0  0
    3.7946   -0.2321   -0.1207 C   0  0  0  0  0  0  0  0  0  0  0  0
    4.4095    1.0732   -0.5915 C   0  0  0  0  0  0  0  0  0  0  0  0
  1  2  1  0
  2  3  1  0
  3  4  1  0
  4  5  2  0
  4  6  1  0
  6  7  1  0
  7  8  1  0
  4  9  1  0
  9 10  1  0
 10 11  1  0
 11 12  1  0
 12 13  1  0
 13 14  1  0
M  END
>  <target>  (961) 
-4.23

$$$$

     RDKit          3D

 25 28  0  0  0  0  0  0  0  0999 V2000
    5.7564   -0.8629    1.3336 C   0  0  0  0  0  0  0  0  0  0  0  0
    4.9377   -0.0380    0.3874 C   0  0  0  0  0  0  0  0  0  0  0  0
    5.1796    1.1273    0.1148 O   0  0  0  0  0  0  0  0  0  0  0  0
    3.9083   -0.7833   -0.0888 O   0  0  0  0  0  0  0  0  0  0  0  0
    2.9352   -0.2646   -1.0472 C   0  0  0  0  0  0  0  0  0  0  0  0
    3.6057    0.5032   -2.1917 C   0  0  0  0  0  0  0  0  0  0  0  0
    2.2750   -1.5476   -1.6063 C   0  0  0  0  0  0  0  0  0  0  0  0
    1.1216   -1.8867   -0.6560 C   0  0  0  0  0  0  0  0  0  0  0  0
    1.0327   -0.7356    0.3616 C   0  0  0  0  0  0  0  0  0  0  0  0
   -0.3844   -0.4212    0.8908 C   0  0  0  0  0  0  0  0  0  0  0  0
   -1.0474   -1.6776    1.4757 C   0  0  0  0  0  0  0  0  0  0  0  0
   -2.4048   -1.3563    2.0839 C   0  0  0  0  0  0  0  0  0  0  0  0
   -3.3137   -0.6856    1.0824 C   0  0  0  0  0  0  0  0  0  0  0  0
   -4.5510   -1.1713    0.8782 C   0  0  0  0  0  0  0  0  0  0  0  0
   -5.5218   -0.4834   -0.0021 C   0  0  0  0  0  0  0  0  0  0  0  0
   -6.6222   -0.9910   -0.2007 O   0  0  0  0  0  0  0  0  0  0  0  0
   -5.1443    0.8654   -0.5523 C   0  0  0  0  0  0  0  0  0  0  0  0
   -3.6535    0.9139   -0.8529 C   0  0  0  0  0  0  0  0  0  0  0  0
   -2.7534    0.5501    0.3667 C   0  0  0  0  0  0  0  0  0  0  0  0
   -2.7682    1.7294    1.3661 C   0  0  0  0  0  0  0  0  0  0  0  0
   -1.3000    0.2410   -0.1706 C   0  0  0  0  0  0  0  0  0  0  0  0
   -0.5981    1.4715   -0.7790 C   0  0  0  0  0  0  0  0  0  0  0  0
    0.7758    1.1271   -1.3564 C   0  0  0  0  0  0  0  0  0  0  0  0
    1.7345    0.4550   -0.3380 C   0  0  0  0  0  0  0  0  0  0  0  0
    2.1782    1.5016    0.7002 C   0  0  0  0  0  0  0  0  0  0  0  0
  1  2  1  0
  2  3  2  0
  2  4  1  0
  4  5  1  0
  5  6  1  0
  5  7  1  0
  7  8  1  0
  8  9  1  0
  9 10  1  0
 10 11  1  0
 11 12  1  0
 12 13  1  0
 13 14  2  0
 14 15  1  0
 15 16  2  0
 15 17  1  0
 17 18  1  0
 18 19  1  0
 19 20  1  0
 19 21  1  0
 21 22  1  0
 22 23  1  0
 23 24  1  0
 24 25  1  0
 19 13  1  0
 21 10  1  0
 24  5  1  0
 24  9  1  0
M  END
>  <target>  (962) 
-5.284

$$$$

     RDKit          3D

 15 16  0  0  0  0  0  0  0  0999 V2000
    5.2115    0.2344    0.2332 Cl  0  0  0  0  0  0  0  0  0  0  0  0
    3.4945    0.1572    0.1564 C   0  0  0  0  0  0  0  0  0  0  0  0
    2.8317    0.6082   -0.9824 C   0  0  0  0  0  0  0  0  0  0  0  0
    1.4370    0.5453   -1.0445 C   0  0  0  0  0  0  0  0  0  0  0  0
    0.6939    0.0312    0.0310 C   0  0  0  0  0  0  0  0  0  0  0  0
    1.3812   -0.4185    1.1705 C   0  0  0  0  0  0  0  0  0  0  0  0
    2.7760   -0.3560    1.2333 C   0  0  0  0  0  0  0  0  0  0  0  0
   -0.7760   -0.0349   -0.0347 C   0  0  0  0  0  0  0  0  0  0  0  0
   -1.5800    1.0351    0.4106 C   0  0  0  0  0  0  0  0  0  0  0  0
   -0.8898    2.4866    1.0596 Cl  0  0  0  0  0  0  0  0  0  0  0  0
   -2.9778    0.9709    0.3475 C   0  0  0  0  0  0  0  0  0  0  0  0
   -3.6057   -0.1622   -0.1613 C   0  0  0  0  0  0  0  0  0  0  0  0
   -2.8360   -1.2324   -0.6076 C   0  0  0  0  0  0  0  0  0  0  0  0
   -1.4380   -1.1708   -0.5457 C   0  0  0  0  0  0  0  0  0  0  0  0
   -0.5654   -2.5520   -1.1247 Cl  0  0  0  0  0  0  0  0  0  0  0  0
  1  2  1  0
  2  3  2  0
  3  4  1  0
  4  5  2  0
  5  6  1  0
  6  7  2  0
  5  8  1  0
  8  9  2  0
  9 10  1  0
  9 11  1  0
 11 12  2  0
 12 13  1  0
 13 14  2  0
 14 15  1  0
  7  2  1  0
 14  8  1  0
M  END
>  <target>  (963) 
-6.14

$$$$

     RDKit          3D

 21 22  0  0  0  0  0  0  0  0999 V2000
   -3.0135   -1.5949    1.3095 F   0  0  0  0  0  0  0  0  0  0  0  0
   -3.4997   -0.3509    1.1798 C   0  0  0  0  0  0  0  0  0  0  0  0
   -4.8223   -0.1309    1.5690 C   0  0  0  0  0  0  0  0  0  0  0  0
   -5.3768    1.1409    1.4556 C   0  0  0  0  0  0  0  0  0  0  0  0
   -4.6013    2.1826    0.9530 C   0  0  0  0  0  0  0  0  0  0  0  0
   -3.2788    1.9499    0.5669 C   0  0  0  0  0  0  0  0  0  0  0  0
   -2.5872    2.9950    0.0915 F   0  0  0  0  0  0  0  0  0  0  0  0
   -2.7037    0.6797    0.6731 C   0  0  0  0  0  0  0  0  0  0  0  0
   -1.2912    0.4666    0.2524 C   0  0  0  0  0  0  0  0  0  0  0  0
   -0.6189    1.3953   -0.1893 O   0  0  0  0  0  0  0  0  0  0  0  0
   -0.7730   -0.8150    0.3801 N   0  0  0  0  0  0  0  0  0  0  0  0
    0.4906   -1.2796    0.0680 C   0  0  0  0  0  0  0  0  0  0  0  0
    0.7329   -2.4670    0.2656 O   0  0  0  0  0  0  0  0  0  0  0  0
    1.3475   -0.3388   -0.4381 N   0  0  0  0  0  0  0  0  0  0  0  0
    2.6830   -0.4973   -0.8459 C   0  0  0  0  0  0  0  0  0  0  0  0
    3.3778   -1.7079   -0.7937 C   0  0  0  0  0  0  0  0  0  0  0  0
    4.7091   -1.7796   -1.2204 C   0  0  0  0  0  0  0  0  0  0  0  0
    5.3479   -0.6396   -1.7005 C   0  0  0  0  0  0  0  0  0  0  0  0
    6.9838   -0.7296   -2.2245 Cl  0  0  0  0  0  0  0  0  0  0  0  0
    4.6678    0.5731   -1.7581 C   0  0  0  0  0  0  0  0  0  0  0  0
    3.3385    0.6423   -1.3314 C   0  0  0  0  0  0  0  0  0  0  0  0
  1  2  1  0
  2  3  2  0
  3  4  1  0
  4  5  2  0
  5  6  1  0
  6  7  1  0
  6  8  2  0
  8  9  1  0
  9 10  2  0
  9 11  1  0
 11 12  1  0
 12 13  2  0
 12 14  1  0
 14 15  1  0
 15 16  2  0
 16 17  1  0
 17 18  2  0
 18 19  1  0
 18 20  1  0
 20 21  2  0
  8  2  1  0
 21 15  1  0
M  END
>  <target>  (964) 
-6.02

$$$$

     RDKit          3D

 17 18  0  0  0  0  0  0  0  0999 V2000
    2.3647   -1.8050   -1.6146 O   0  0  0  0  0  0  0  0  0  0  0  0
    2.3035   -0.8135   -0.6759 C   0  0  0  0  0  0  0  0  0  0  0  0
    3.4521   -0.0680   -0.4380 C   0  0  0  0  0  0  0  0  0  0  0  0
    3.4173    0.9413    0.5221 C   0  0  0  0  0  0  0  0  0  0  0  0
    4.8290    1.8754    0.8308 Cl  0  0  0  0  0  0  0  0  0  0  0  0
    2.2485    1.1995    1.2427 C   0  0  0  0  0  0  0  0  0  0  0  0
    1.0963    0.4481    0.9966 C   0  0  0  0  0  0  0  0  0  0  0  0
    1.1202   -0.5488    0.0183 C   0  0  0  0  0  0  0  0  0  0  0  0
    0.0281   -1.3404   -0.2608 O   0  0  0  0  0  0  0  0  0  0  0  0
   -1.1675   -0.6891   -0.4753 C   0  0  0  0  0  0  0  0  0  0  0  0
   -1.2752    0.3071   -1.4533 C   0  0  0  0  0  0  0  0  0  0  0  0
   -2.5056    0.9264   -1.6802 C   0  0  0  0  0  0  0  0  0  0  0  0
   -3.6243    0.5385   -0.9425 C   0  0  0  0  0  0  0  0  0  0  0  0
   -5.1372    1.3067   -1.2258 Cl  0  0  0  0  0  0  0  0  0  0  0  0
   -3.5301   -0.4679    0.0170 C   0  0  0  0  0  0  0  0  0  0  0  0
   -2.3005   -1.0873    0.2446 C   0  0  0  0  0  0  0  0  0  0  0  0
   -2.2112   -2.3323    1.4362 Cl  0  0  0  0  0  0  0  0  0  0  0  0
  1  2  1  0
  2  3  2  0
  3  4  1  0
  4  5  1  0
  4  6  2  0
  6  7  1  0
  7  8  2  0
  8  9  1  0
  9 10  1  0
 10 11  2  0
 11 12  1  0
 12 13  2  0
 13 14  1  0
 13 15  1  0
 15 16  2  0
 16 17  1  0
  8  2  1  0
 16 10  1  0
M  END
>  <target>  (965) 
-4.46

$$$$

     RDKit          3D

 28 28  0  0  0  0  0  0  0  0999 V2000
   -0.1892    3.5868    0.8985 C   0  0  0  0  0  0  0  0  0  0  0  0
    0.9266    3.8341   -0.0377 C   0  0  0  0  0  0  0  0  0  0  0  0
    0.7879    4.2232   -1.1836 O   0  0  0  0  0  0  0  0  0  0  0  0
    2.0906    3.5216    0.5830 O   0  0  0  0  0  0  0  0  0  0  0  0
    3.2626    3.5478   -0.2459 C   0  0  0  0  0  0  0  0  0  0  0  0
    3.4276    2.2160   -0.9767 C   0  0  0  0  0  0  0  0  0  0  0  0
    3.5683    1.0405   -0.0034 C   0  0  0  0  0  0  0  0  0  0  0  0
    3.6319   -0.2936   -0.7482 C   0  0  0  0  0  0  0  0  0  0  0  0
    3.9268   -1.4915    0.1622 C   0  0  0  0  0  0  0  0  0  0  0  0
    2.9482   -1.7131    1.3315 C   0  0  0  0  0  0  0  0  0  0  0  0
    3.3712   -2.9496    2.1300 C   0  0  0  0  0  0  0  0  0  0  0  0
    1.5006   -1.8681    0.8659 C   0  0  0  0  0  0  0  0  0  0  0  0
   -1.3706    2.9721    0.4663 C   0  0  0  0  0  0  0  0  0  0  0  0
   -1.5527    2.4349   -0.8961 C   0  0  0  0  0  0  0  0  0  0  0  0
   -2.5721    2.5998   -1.5448 O   0  0  0  0  0  0  0  0  0  0  0  0
   -0.4910    1.6564   -1.2153 O   0  0  0  0  0  0  0  0  0  0  0  0
   -0.5167    1.0583   -2.5203 C   0  0  0  0  0  0  0  0  0  0  0  0
   -0.6472   -0.4576   -2.4005 C   0  0  0  0  0  0  0  0  0  0  0  0
   -1.9547   -0.8849   -1.7279 C   0  0  0  0  0  0  0  0  0  0  0  0
   -2.0667   -2.4088   -1.6519 C   0  0  0  0  0  0  0  0  0  0  0  0
   -3.4097   -2.8947   -1.0940 C   0  0  0  0  0  0  0  0  0  0  0  0
   -3.7598   -2.4194    0.3291 C   0  0  0  0  0  0  0  0  0  0  0  0
   -5.1300   -2.9701    0.7345 C   0  0  0  0  0  0  0  0  0  0  0  0
   -2.7100   -2.8366    1.3594 C   0  0  0  0  0  0  0  0  0  0  0  0
   -2.4492    2.8326    1.3534 C   0  0  0  0  0  0  0  0  0  0  0  0
   -2.3388    3.2805    2.6707 C   0  0  0  0  0  0  0  0  0  0  0  0
   -1.1563    3.8752    3.1080 C   0  0  0  0  0  0  0  0  0  0  0  0
   -0.0853    4.0339    2.2261 C   0  0  0  0  0  0  0  0  0  0  0  0
  1  2  1  0
  2  3  2  0
  2  4  1  0
  4  5  1  0
  5  6  1  0
  6  7  1  0
  7  8  1  0
  8  9  1  0
  9 10  1  0
 10 11  1  0
 10 12  1  0
  1 13  2  0
 13 14  1  0
 14 15  2  0
 14 16  1  0
 16 17  1  0
 17 18  1  0
 18 19  1  0
 19 20  1  0
 20 21  1  0
 21 22  1  0
 22 23  1  0
 22 24  1  0
 13 25  1  0
 25 26  2  0
 26 27  1  0
 27 28  2  0
 28  1  1  0
M  END
>  <target>  (966) 
-6.6370000000000005

$$$$

     RDKit          3D

 25 28  0  0  0  0  0  0  0  0999 V2000
    2.3117   -1.8396   -0.7089 C   0  0  0  0  0  0  0  0  0  0  0  0
    2.0269   -0.3932   -0.2709 C   0  0  0  0  0  0  0  0  0  0  0  0
    1.2351    0.3551   -1.3642 C   0  0  0  0  0  0  0  0  0  0  0  0
   -0.2296   -0.0855   -1.4933 C   0  0  0  0  0  0  0  0  0  0  0  0
   -0.8188    0.7206   -2.5088 O   0  0  0  0  0  0  0  0  0  0  0  0
   -1.0119    0.0260   -0.1595 C   0  0  0  0  0  0  0  0  0  0  0  0
   -0.2384   -0.7431    0.9504 C   0  0  0  0  0  0  0  0  0  0  0  0
   -0.9369   -0.6023    2.3096 C   0  0  0  0  0  0  0  0  0  0  0  0
   -2.3609   -1.1262    2.2477 C   0  0  0  0  0  0  0  0  0  0  0  0
   -3.1512   -0.4193    1.1754 C   0  0  0  0  0  0  0  0  0  0  0  0
   -4.3340    0.1346    1.4976 C   0  0  0  0  0  0  0  0  0  0  0  0
   -5.2196    0.7329    0.4762 C   0  0  0  0  0  0  0  0  0  0  0  0
   -6.2606    1.2836    0.8244 O   0  0  0  0  0  0  0  0  0  0  0  0
   -4.8406    0.5562   -0.9662 C   0  0  0  0  0  0  0  0  0  0  0  0
   -3.3279    0.6132   -1.1271 C   0  0  0  0  0  0  0  0  0  0  0  0
   -2.5447   -0.4039   -0.2398 C   0  0  0  0  0  0  0  0  0  0  0  0
   -2.7120   -1.8153   -0.8480 C   0  0  0  0  0  0  0  0  0  0  0  0
    1.2488   -0.3503    1.0636 C   0  0  0  0  0  0  0  0  0  0  0  0
    1.5202    1.0613    1.6077 C   0  0  0  0  0  0  0  0  0  0  0  0
    2.8865    1.4677    1.0558 C   0  0  0  0  0  0  0  0  0  0  0  0
    3.3436    0.3200    0.1475 C   0  0  0  0  0  0  0  0  0  0  0  0
    4.2715    0.7915   -0.9688 C   0  0  0  0  0  0  0  0  0  0  0  0
    4.1072    0.4952   -2.1537 O   0  0  0  0  0  0  0  0  0  0  0  0
    5.4875    1.6173   -0.5563 C   0  0  0  0  0  0  0  0  0  0  0  0
    6.3840    1.8011   -1.6415 O   0  0  0  0  0  0  0  0  0  0  0  0
  1  2  1  0
  2  3  1  0
  3  4  1  0
  4  5  1  0
  4  6  1  0
  6  7  1  0
  7  8  1  0
  8  9  1  0
  9 10  1  0
 10 11  2  0
 11 12  1  0
 12 13  2  0
 12 14  1  0
 14 15  1  0
 15 16  1  0
 16 17  1  0
  7 18  1  0
 18 19  1  0
 19 20  1  0
 20 21  1  0
 21 22  1  0
 22 23  2  0
 22 24  1  0
 24 25  1  0
 21  2  1  0
 18  2  1  0
 16  6  1  0
 16 10  1  0
M  END
>  <target>  (967) 
-3.24

$$$$

     RDKit          3D

  9  9  0  0  0  0  0  0  0  0999 V2000
    2.6958   -1.0041   -0.4074 C   0  0  0  0  0  0  0  0  0  0  0  0
    1.3095   -0.4883   -0.1576 C   0  0  0  0  0  0  0  0  0  0  0  0
    0.2266   -1.3735   -0.0874 C   0  0  0  0  0  0  0  0  0  0  0  0
   -1.0755   -0.8992    0.1143 C   0  0  0  0  0  0  0  0  0  0  0  0
   -2.2325   -1.8531    0.1545 C   0  0  0  0  0  0  0  0  0  0  0  0
   -1.2916    0.4808    0.2150 C   0  0  0  0  0  0  0  0  0  0  0  0
   -0.2211    1.3812    0.1473 C   0  0  0  0  0  0  0  0  0  0  0  0
   -0.4671    2.8590    0.2227 C   0  0  0  0  0  0  0  0  0  0  0  0
    1.0740    0.8883   -0.0547 C   0  0  0  0  0  0  0  0  0  0  0  0
  1  2  1  0
  2  3  2  0
  3  4  1  0
  4  5  1  0
  4  6  2  0
  6  7  1  0
  7  8  1  0
  7  9  2  0
  9  2  1  0
M  END
>  <target>  (968) 
-3.4

$$$$

     RDKit          3D

 28 28  0  0  0  0  0  0  0  0999 V2000
   -5.1512    0.7371   -3.9705 C   0  0  0  0  0  0  0  0  0  0  0  0
   -5.5051    0.8272   -2.4939 C   0  0  0  0  0  0  0  0  0  0  0  0
   -4.5464   -0.0026   -1.6396 C   0  0  0  0  0  0  0  0  0  0  0  0
   -4.9248   -0.0328   -0.1558 C   0  0  0  0  0  0  0  0  0  0  0  0
   -4.9422    1.3255    0.5526 C   0  0  0  0  0  0  0  0  0  0  0  0
   -3.6343    2.1208    0.4929 C   0  0  0  0  0  0  0  0  0  0  0  0
   -2.3982    1.3983    1.0293 C   0  0  0  0  0  0  0  0  0  0  0  0
   -2.5031    1.0145    2.5015 C   0  0  0  0  0  0  0  0  0  0  0  0
   -1.2665    0.4365    2.9523 O   0  0  0  0  0  0  0  0  0  0  0  0
   -1.1330   -0.8952    2.7408 C   0  0  0  0  0  0  0  0  0  0  0  0
   -1.9352   -1.6384    2.2017 O   0  0  0  0  0  0  0  0  0  0  0  0
    0.0996   -1.3675    3.3998 C   0  0  0  0  0  0  0  0  0  0  0  0
   -0.0120   -2.5037    4.2161 C   0  0  0  0  0  0  0  0  0  0  0  0
    1.0935   -2.9672    4.9318 C   0  0  0  0  0  0  0  0  0  0  0  0
    2.3143   -2.3007    4.8382 C   0  0  0  0  0  0  0  0  0  0  0  0
    2.4377   -1.1818    4.0125 C   0  0  0  0  0  0  0  0  0  0  0  0
    1.3354   -0.7227    3.2752 C   0  0  0  0  0  0  0  0  0  0  0  0
    1.5690    0.4128    2.3635 C   0  0  0  0  0  0  0  0  0  0  0  0
    2.2150    1.4017    2.6653 O   0  0  0  0  0  0  0  0  0  0  0  0
    1.0731    0.1058    1.1413 O   0  0  0  0  0  0  0  0  0  0  0  0
    1.3827    1.0667    0.1251 C   0  0  0  0  0  0  0  0  0  0  0  0
    0.8594    0.5649   -1.2183 C   0  0  0  0  0  0  0  0  0  0  0  0
    1.3672   -0.8249   -1.6211 C   0  0  0  0  0  0  0  0  0  0  0  0
    2.8900   -0.9795   -1.6884 C   0  0  0  0  0  0  0  0  0  0  0  0
    3.5490   -0.0325   -2.6941 C   0  0  0  0  0  0  0  0  0  0  0  0
    5.0400   -0.3152   -2.9038 C   0  0  0  0  0  0  0  0  0  0  0  0
    5.8877   -0.0504   -1.6588 C   0  0  0  0  0  0  0  0  0  0  0  0
    7.3697   -0.2344   -1.9480 C   0  0  0  0  0  0  0  0  0  0  0  0
  1  2  1  0
  2  3  1  0
  3  4  1  0
  4  5  1  0
  5  6  1  0
  6  7  1  0
  7  8  1  0
  8  9  1  0
  9 10  1  0
 10 11  2  0
 10 12  1  0
 12 13  2  0
 13 14  1  0
 14 15  2  0
 15 16  1  0
 16 17  2  0
 17 18  1  0
 18 19  2  0
 18 20  1  0
 20 21  1  0
 21 22  1  0
 22 23  1  0
 23 24  1  0
 24 25  1  0
 25 26  1  0
 26 27  1  0
 27 28  1  0
 17 12  1  0
M  END
>  <target>  (969) 
-5.115

$$$$

     RDKit          3D

 16 15  0  0  0  0  0  0  0  0999 V2000
   -7.8958    0.5552   -1.5606 C   0  0  0  0  0  0  0  0  0  0  0  0
   -6.5432   -0.0249   -1.1792 C   0  0  0  0  0  0  0  0  0  0  0  0
   -5.9177    0.7348   -0.0096 C   0  0  0  0  0  0  0  0  0  0  0  0
   -4.5567    0.1475    0.3714 C   0  0  0  0  0  0  0  0  0  0  0  0
   -3.9312    0.9125    1.5399 C   0  0  0  0  0  0  0  0  0  0  0  0
   -2.6203    0.2975    2.0386 C   0  0  0  0  0  0  0  0  0  0  0  0
   -1.4856    0.3702    1.0144 C   0  0  0  0  0  0  0  0  0  0  0  0
   -0.1731   -0.1511    1.6044 C   0  0  0  0  0  0  0  0  0  0  0  0
    0.9623   -0.0834    0.5816 C   0  0  0  0  0  0  0  0  0  0  0  0
    2.2741   -0.6040    1.1714 C   0  0  0  0  0  0  0  0  0  0  0  0
    3.4100   -0.5368    0.1479 C   0  0  0  0  0  0  0  0  0  0  0  0
    4.7218   -1.0544    0.7419 C   0  0  0  0  0  0  0  0  0  0  0  0
    5.8672   -1.1166   -0.2732 C   0  0  0  0  0  0  0  0  0  0  0  0
    6.3056    0.2613   -0.7792 C   0  0  0  0  0  0  0  0  0  0  0  0
    7.5426    0.1783   -1.6681 C   0  0  0  0  0  0  0  0  0  0  0  0
    7.2797   -0.5926   -2.8320 O   0  0  0  0  0  0  0  0  0  0  0  0
  1  2  1  0
  2  3  1  0
  3  4  1  0
  4  5  1  0
  5  6  1  0
  6  7  1  0
  7  8  1  0
  8  9  1  0
  9 10  1  0
 10 11  1  0
 11 12  1  0
 12 13  1  0
 13 14  1  0
 14 15  1  0
 15 16  1  0
M  END
>  <target>  (970) 
-6.35

$$$$

     RDKit          3D

 16 17  0  0  0  0  0  0  0  0999 V2000
    0.6538    2.6708    0.6778 Cl  0  0  0  0  0  0  0  0  0  0  0  0
    1.4511    1.1511    0.4359 C   0  0  0  0  0  0  0  0  0  0  0  0
    2.8410    1.1261    0.6013 C   0  0  0  0  0  0  0  0  0  0  0  0
    3.5468   -0.0605    0.4227 C   0  0  0  0  0  0  0  0  0  0  0  0
    2.8632   -1.2233    0.0785 C   0  0  0  0  0  0  0  0  0  0  0  0
    1.4734   -1.2009   -0.0874 C   0  0  0  0  0  0  0  0  0  0  0  0
    0.7046   -2.6939   -0.5159 Cl  0  0  0  0  0  0  0  0  0  0  0  0
    0.7345   -0.0125    0.0875 C   0  0  0  0  0  0  0  0  0  0  0  0
   -0.7345    0.0125   -0.0875 C   0  0  0  0  0  0  0  0  0  0  0  0
   -1.6058   -0.2362    0.9931 C   0  0  0  0  0  0  0  0  0  0  0  0
   -1.0067   -0.5840    2.5817 Cl  0  0  0  0  0  0  0  0  0  0  0  0
   -2.9955   -0.2122    0.8262 C   0  0  0  0  0  0  0  0  0  0  0  0
   -3.5468    0.0605   -0.4227 C   0  0  0  0  0  0  0  0  0  0  0  0
   -2.7087    0.3094   -1.5060 C   0  0  0  0  0  0  0  0  0  0  0  0
   -1.3187    0.2860   -1.3416 C   0  0  0  0  0  0  0  0  0  0  0  0
   -0.3518    0.6072   -2.7436 Cl  0  0  0  0  0  0  0  0  0  0  0  0
  1  2  1  0
  2  3  2  0
  3  4  1  0
  4  5  2  0
  5  6  1  0
  6  7  1  0
  6  8  2  0
  8  9  1  0
  9 10  2  0
 10 11  1  0
 10 12  1  0
 12 13  2  0
 13 14  1  0
 14 15  2  0
 15 16  1  0
  8  2  1  0
 15  9  1  0
M  END
>  <target>  (971) 
-7.39

$$$$

     RDKit          3D

 11 11  0  0  0  0  0  0  0  0999 V2000
   -0.7646    1.7118    1.5379 O   0  0  0  0  0  0  0  0  0  0  0  0
   -0.1012    1.0897    0.7133 C   0  0  0  0  0  0  0  0  0  0  0  0
    1.1049    1.5733    0.2825 N   0  0  0  0  0  0  0  0  0  0  0  0
    2.1317    0.7665   -0.1014 C   0  0  0  0  0  0  0  0  0  0  0  0
    3.2992    1.1316   -0.0113 O   0  0  0  0  0  0  0  0  0  0  0  0
    1.8120   -0.4962   -0.4961 N   0  0  0  0  0  0  0  0  0  0  0  0
    0.6551   -1.1239   -0.1195 C   0  0  0  0  0  0  0  0  0  0  0  0
    0.6212   -2.3439    0.0121 O   0  0  0  0  0  0  0  0  0  0  0  0
   -0.5438   -0.2113    0.0677 C   0  0  0  0  0  0  0  0  0  0  0  0
   -1.6147   -0.8982    0.9210 C   0  0  0  0  0  0  0  0  0  0  0  0
   -1.1210    0.1134   -1.3194 C   0  0  0  0  0  0  0  0  0  0  0  0
  1  2  2  0
  2  3  1  0
  3  4  1  0
  4  5  2  0
  4  6  1  0
  6  7  1  0
  7  8  2  0
  7  9  1  0
  9 10  1  0
  9 11  1  0
  9  2  1  0
M  END
>  <target>  (972) 
-1.742

$$$$

     RDKit          3D

  4  3  0  0  0  0  0  0  0  0999 V2000
   -1.2248   -0.2134    0.3548 C   0  0  0  0  0  0  0  0  0  0  0  0
   -0.0550    0.4357   -0.3789 C   0  0  0  0  0  0  0  0  0  0  0  0
    1.2369   -0.3440   -0.1529 C   0  0  0  0  0  0  0  0  0  0  0  0
    0.1937    2.4679    0.3039 I   0  0  0  0  0  0  0  0  0  0  0  0
  1  2  1  0
  2  3  1  0
  2  4  1  0
M  END
>  <target>  (973) 
-2.09

$$$$

     RDKit          3D

 12 12  0  0  0  0  0  0  0  0999 V2000
    2.7263    0.5898    1.3200 O   0  0  0  0  0  0  0  0  0  0  0  0
    2.0118    0.8768    0.3518 N   0  0  0  0  0  0  0  0  0  0  0  0
    2.2602    1.7321   -0.5063 O   0  0  0  0  0  0  0  0  0  0  0  0
    0.8045    0.0969    0.1686 C   0  0  0  0  0  0  0  0  0  0  0  0
    0.9140   -1.3003    0.1718 C   0  0  0  0  0  0  0  0  0  0  0  0
   -0.2208   -2.0756   -0.0799 C   0  0  0  0  0  0  0  0  0  0  0  0
   -1.4518   -1.4635   -0.3370 C   0  0  0  0  0  0  0  0  0  0  0  0
   -1.5619   -0.0706   -0.3333 C   0  0  0  0  0  0  0  0  0  0  0  0
   -0.4249    0.7065   -0.0739 C   0  0  0  0  0  0  0  0  0  0  0  0
   -0.5838    2.1445    0.0041 N   0  0  0  0  0  0  0  0  0  0  0  0
   -0.1663    2.6981    1.0283 O   0  0  0  0  0  0  0  0  0  0  0  0
   -1.1725    2.6978   -0.9327 O   0  0  0  0  0  0  0  0  0  0  0  0
  1  2  1  0
  2  3  2  0
  2  4  1  0
  4  5  2  0
  5  6  1  0
  6  7  2  0
  7  8  1  0
  8  9  2  0
  9 10  1  0
 10 11  1  0
 10 12  2  0
  9  4  1  0
M  CHG  4   1  -1   2   1  10   1  11  -1
M  END
>  <target>  (974) 
-3.1

$$$$

     RDKit          3D

  6  5  0  0  0  0  0  0  0  0999 V2000
    1.0108    1.1927    0.0051 C   0  0  0  0  0  0  0  0  0  0  0  0
    0.4249   -0.1901   -0.2543 C   0  0  0  0  0  0  0  0  0  0  0  0
    1.3575   -1.2813    0.2654 C   0  0  0  0  0  0  0  0  0  0  0  0
   -0.9554   -0.2992    0.3871 C   0  0  0  0  0  0  0  0  0  0  0  0
   -1.1372   -0.8542    1.4709 O   0  0  0  0  0  0  0  0  0  0  0  0
   -2.1035    0.3395   -0.3536 C   0  0  0  0  0  0  0  0  0  0  0  0
  1  2  1  0
  2  3  1  0
  2  4  1  0
  4  5  2  0
  4  6  1  0
M  END
>  <target>  (975) 
-0.12

$$$$

     RDKit          3D

 16 15  0  0  0  0  0  0  0  0999 V2000
    7.8063   -0.4269    1.7755 C   0  0  0  0  0  0  0  0  0  0  0  0
    6.5264   -0.7819    1.0337 C   0  0  0  0  0  0  0  0  0  0  0  0
    5.7635    0.4731    0.6076 C   0  0  0  0  0  0  0  0  0  0  0  0
    4.5272    0.1763   -0.2479 C   0  0  0  0  0  0  0  0  0  0  0  0
    3.4179   -0.5477    0.5196 C   0  0  0  0  0  0  0  0  0  0  0  0
    2.1822   -0.8461   -0.3361 C   0  0  0  0  0  0  0  0  0  0  0  0
    1.4183    0.4089   -0.7647 C   0  0  0  0  0  0  0  0  0  0  0  0
    0.1312    0.0457   -1.5108 C   0  0  0  0  0  0  0  0  0  0  0  0
   -0.6338    1.2999   -1.9383 C   0  0  0  0  0  0  0  0  0  0  0  0
   -1.8719    0.9994   -2.7886 C   0  0  0  0  0  0  0  0  0  0  0  0
   -2.9376    0.1180   -2.1299 C   0  0  0  0  0  0  0  0  0  0  0  0
   -3.5058    0.7105   -0.8389 C   0  0  0  0  0  0  0  0  0  0  0  0
   -4.6442   -0.1513   -0.2881 C   0  0  0  0  0  0  0  0  0  0  0  0
   -5.2107    0.4360    1.0057 C   0  0  0  0  0  0  0  0  0  0  0  0
   -6.3478   -0.4246    1.5558 C   0  0  0  0  0  0  0  0  0  0  0  0
   -6.9135    0.1557    2.8421 C   0  0  0  0  0  0  0  0  0  0  0  0
  1  2  1  0
  2  3  1  0
  3  4  1  0
  4  5  1  0
  5  6  1  0
  6  7  1  0
  7  8  1  0
  8  9  1  0
  9 10  1  0
 10 11  1  0
 11 12  1  0
 12 13  1  0
 13 14  1  0
 14 15  1  0
 15 16  1  0
M  END
>  <target>  (976) 
-8.4

$$$$

     RDKit          3D

 11 12  0  0  0  0  0  0  0  0999 V2000
   -1.8906   -1.9169    0.7323 C   0  0  0  0  0  0  0  0  0  0  0  0
   -1.0496   -0.7133    0.3200 C   0  0  0  0  0  0  0  0  0  0  0  0
   -1.1408    0.4110    1.3696 C   0  0  0  0  0  0  0  0  0  0  0  0
   -0.2899    1.6055    0.9230 C   0  0  0  0  0  0  0  0  0  0  0  0
    0.4644    1.2300   -0.3670 C   0  0  0  0  0  0  0  0  0  0  0  0
   -0.6154    1.0215   -1.4462 C   0  0  0  0  0  0  0  0  0  0  0  0
   -1.4752   -0.1891   -1.0648 C   0  0  0  0  0  0  0  0  0  0  0  0
    1.2391   -0.1023   -0.1450 C   0  0  0  0  0  0  0  0  0  0  0  0
    2.2869    0.0160    0.9722 C   0  0  0  0  0  0  0  0  0  0  0  0
    1.9584   -0.5732   -1.4181 C   0  0  0  0  0  0  0  0  0  0  0  0
    0.3227   -1.1496    0.2390 O   0  0  0  0  0  0  0  0  0  0  0  0
  1  2  1  0
  2  3  1  0
  3  4  1  0
  4  5  1  0
  5  6  1  0
  6  7  1  0
  5  8  1  0
  8  9  1  0
  8 10  1  0
  8 11  1  0
  7  2  1  0
 11  2  1  0
M  END
>  <target>  (977) 
-1.74

$$$$

     RDKit          3D

 13 15  0  0  0  0  0  0  0  0999 V2000
    0.1697   -2.2239    0.1809 C   0  0  0  0  0  0  0  0  0  0  0  0
    0.6915   -0.8250    0.0784 C   0  0  0  0  0  0  0  0  0  0  0  0
    2.0796   -0.5997    0.0854 C   0  0  0  0  0  0  0  0  0  0  0  0
    2.6203    0.6964   -0.0086 C   0  0  0  0  0  0  0  0  0  0  0  0
    1.7897    1.8126   -0.1128 C   0  0  0  0  0  0  0  0  0  0  0  0
    0.4217    1.6083   -0.1211 C   0  0  0  0  0  0  0  0  0  0  0  0
   -0.8403    2.8851   -0.2459 S   0  0  0  0  0  0  0  0  0  0  0  0
   -2.0313    1.6387   -0.1676 C   0  0  0  0  0  0  0  0  0  0  0  0
   -3.3351    1.6012   -0.1880 N   0  0  0  0  0  0  0  0  0  0  0  0
   -3.6796    0.2566   -0.0867 N   0  0  0  0  0  0  0  0  0  0  0  0
   -2.5648   -0.4513   -0.0100 C   0  0  0  0  0  0  0  0  0  0  0  0
   -1.5027    0.3897   -0.0582 N   0  0  0  0  0  0  0  0  0  0  0  0
   -0.1128    0.3056   -0.0265 C   0  0  0  0  0  0  0  0  0  0  0  0
  1  2  1  0
  2  3  2  0
  3  4  1  0
  4  5  2  0
  5  6  1  0
  6  7  1  0
  7  8  1  0
  8  9  2  0
  9 10  1  0
 10 11  2  0
 11 12  1  0
 12 13  1  0
 12  8  1  0
 13  2  1  0
 13  6  2  0
M  END
>  <target>  (978) 
-2.07

$$$$

     RDKit          3D

  9  8  0  0  0  0  0  0  0  0999 V2000
   -4.3089    0.2310   -0.2264 C   0  0  0  0  0  0  0  0  0  0  0  0
   -3.0131   -0.4576    0.1715 C   0  0  0  0  0  0  0  0  0  0  0  0
   -1.7932    0.3791   -0.2129 C   0  0  0  0  0  0  0  0  0  0  0  0
   -0.4920   -0.3170    0.1890 C   0  0  0  0  0  0  0  0  0  0  0  0
    0.7286    0.5200   -0.1955 C   0  0  0  0  0  0  0  0  0  0  0  0
    2.0278   -0.1749    0.2057 C   0  0  0  0  0  0  0  0  0  0  0  0
    3.2588    0.6338   -0.1640 C   0  0  0  0  0  0  0  0  0  0  0  0
    3.1962    1.7267   -0.7248 O   0  0  0  0  0  0  0  0  0  0  0  0
    4.5873    0.0211    0.1963 C   0  0  0  0  0  0  0  0  0  0  0  0
  1  2  1  0
  2  3  1  0
  3  4  1  0
  4  5  1  0
  5  6  1  0
  6  7  1  0
  7  8  2  0
  7  9  1  0
M  END
>  <target>  (979) 
-2.05

$$$$

     RDKit          3D

 12 11  0  0  0  0  0  0  0  0999 V2000
   -5.2557    0.6148   -1.2307 C   0  0  0  0  0  0  0  0  0  0  0  0
   -3.8567    0.1136   -1.5514 C   0  0  0  0  0  0  0  0  0  0  0  0
   -2.9641    0.1122   -0.3106 C   0  0  0  0  0  0  0  0  0  0  0  0
   -1.5578   -0.3926   -0.6375 C   0  0  0  0  0  0  0  0  0  0  0  0
   -0.6645   -0.3940    0.6042 C   0  0  0  0  0  0  0  0  0  0  0  0
    0.7422   -0.8990    0.2770 C   0  0  0  0  0  0  0  0  0  0  0  0
    1.6353   -0.8989    1.5211 C   0  0  0  0  0  0  0  0  0  0  0  0
    3.0309   -1.4466    1.2374 C   0  0  0  0  0  0  0  0  0  0  0  0
    3.8352   -0.5403    0.3399 C   0  0  0  0  0  0  0  0  0  0  0  0
    4.1251   -0.8039   -0.8191 O   0  0  0  0  0  0  0  0  0  0  0  0
    4.1875    0.5964    1.0011 O   0  0  0  0  0  0  0  0  0  0  0  0
    4.9486    1.5124    0.2132 C   0  0  0  0  0  0  0  0  0  0  0  0
  1  2  1  0
  2  3  1  0
  3  4  1  0
  4  5  1  0
  5  6  1  0
  6  7  1  0
  7  8  1  0
  8  9  1  0
  9 10  2  0
  9 11  1  0
 11 12  1  0
M  END
>  <target>  (980) 
-3.38

$$$$

     RDKit          3D

  8  8  0  0  0  0  0  0  0  0999 V2000
    2.1544    1.6612    0.0411 F   0  0  0  0  0  0  0  0  0  0  0  0
    1.0940    0.8435    0.0209 C   0  0  0  0  0  0  0  0  0  0  0  0
    1.2930   -0.5348    0.0047 C   0  0  0  0  0  0  0  0  0  0  0  0
    0.1885   -1.3863   -0.0164 C   0  0  0  0  0  0  0  0  0  0  0  0
   -1.0940   -0.8435   -0.0209 C   0  0  0  0  0  0  0  0  0  0  0  0
   -2.1544   -1.6612   -0.0411 F   0  0  0  0  0  0  0  0  0  0  0  0
   -1.2930    0.5348   -0.0047 C   0  0  0  0  0  0  0  0  0  0  0  0
   -0.1885    1.3863    0.0164 C   0  0  0  0  0  0  0  0  0  0  0  0
  1  2  1  0
  2  3  2  0
  3  4  1  0
  4  5  2  0
  5  6  1  0
  5  7  1  0
  7  8  2  0
  8  2  1  0
M  END
>  <target>  (981) 
-1.97

$$$$

     RDKit          3D

 19 21  0  0  0  0  0  0  0  0999 V2000
    0.4738   -1.2609   -2.3227 O   0  0  0  0  0  0  0  0  0  0  0  0
    0.7983   -0.7633   -1.2614 C   0  0  0  0  0  0  0  0  0  0  0  0
   -0.0004   -0.3001   -0.2499 N   0  0  0  0  0  0  0  0  0  0  0  0
   -1.4472   -0.2061   -0.3702 C   0  0  0  0  0  0  0  0  0  0  0  0
   -2.2100   -0.6352    0.8803 C   0  0  0  0  0  0  0  0  0  0  0  0
   -3.7046   -0.5309    0.6147 C   0  0  0  0  0  0  0  0  0  0  0  0
   -4.0896    0.8649    0.1807 C   0  0  0  0  0  0  0  0  0  0  0  0
   -5.2082    1.3287    0.3820 O   0  0  0  0  0  0  0  0  0  0  0  0
   -3.1405    1.5782   -0.5090 N   0  0  0  0  0  0  0  0  0  0  0  0
   -1.8326    1.2252   -0.7585 C   0  0  0  0  0  0  0  0  0  0  0  0
   -1.0703    2.0141   -1.3137 O   0  0  0  0  0  0  0  0  0  0  0  0
    0.7410    0.2443    0.7635 C   0  0  0  0  0  0  0  0  0  0  0  0
    0.3642    0.8055    1.7742 O   0  0  0  0  0  0  0  0  0  0  0  0
    2.1452    0.0528    0.4060 C   0  0  0  0  0  0  0  0  0  0  0  0
    3.2978    0.3906    1.0876 C   0  0  0  0  0  0  0  0  0  0  0  0
    4.5160    0.0811    0.4740 C   0  0  0  0  0  0  0  0  0  0  0  0
    4.5518   -0.5463   -0.7892 C   0  0  0  0  0  0  0  0  0  0  0  0
    3.3695   -0.8745   -1.4606 C   0  0  0  0  0  0  0  0  0  0  0  0
    2.1802   -0.5609   -0.8324 C   0  0  0  0  0  0  0  0  0  0  0  0
  1  2  2  0
  2  3  1  0
  3  4  1  0
  4  5  1  0
  5  6  1  0
  6  7  1  0
  7  8  2  0
  7  9  1  0
  9 10  1  0
 10 11  2  0
  3 12  1  0
 12 13  2  0
 12 14  1  0
 14 15  2  0
 15 16  1  0
 16 17  2  0
 17 18  1  0
 18 19  2  0
 19  2  1  0
 10  4  1  0
 19 14  1  0
M  END
>  <target>  (982) 
-2.676

$$$$

     RDKit          3D

 23 23  0  0  0  0  0  0  0  0999 V2000
   -2.8484    2.7383    1.7141 C   0  0  0  0  0  0  0  0  0  0  0  0
   -2.4106    1.3955    1.1514 C   0  0  0  0  0  0  0  0  0  0  0  0
   -1.1578    1.5351    0.2829 C   0  0  0  0  0  0  0  0  0  0  0  0
   -0.7243    0.2073   -0.2051 N   0  0  0  0  0  0  0  0  0  0  0  0
   -1.4609   -0.3236   -1.3741 C   0  0  0  0  0  0  0  0  0  0  0  0
   -1.7662   -1.8151   -1.2155 C   0  0  0  0  0  0  0  0  0  0  0  0
   -2.7925   -2.0960   -0.1275 C   0  0  0  0  0  0  0  0  0  0  0  0
    0.6680    0.0139   -0.1961 C   0  0  0  0  0  0  0  0  0  0  0  0
    1.2567   -0.8221    0.7758 C   0  0  0  0  0  0  0  0  0  0  0  0
    2.6353   -1.1094    0.8352 C   0  0  0  0  0  0  0  0  0  0  0  0
    3.5109   -0.5337   -0.0912 C   0  0  0  0  0  0  0  0  0  0  0  0
    2.9757    0.3216   -1.0623 C   0  0  0  0  0  0  0  0  0  0  0  0
    1.5893    0.5885   -1.0947 C   0  0  0  0  0  0  0  0  0  0  0  0
    1.1633    1.5315   -2.1083 N   0  0  0  0  0  0  0  0  0  0  0  0
    1.1311    1.1198   -3.2754 O   0  0  0  0  0  0  0  0  0  0  0  0
    0.9235    2.6879   -1.7389 O   0  0  0  0  0  0  0  0  0  0  0  0
    4.9893   -0.8471   -0.0628 C   0  0  0  0  0  0  0  0  0  0  0  0
    5.7534    0.1870   -0.5061 F   0  0  0  0  0  0  0  0  0  0  0  0
    5.4424   -1.1438    1.1845 F   0  0  0  0  0  0  0  0  0  0  0  0
    5.2997   -1.9132   -0.8457 F   0  0  0  0  0  0  0  0  0  0  0  0
    0.4329   -1.4329    1.8008 N   0  0  0  0  0  0  0  0  0  0  0  0
    0.0830   -0.7129    2.7458 O   0  0  0  0  0  0  0  0  0  0  0  0
    0.2215   -2.6489    1.6938 O   0  0  0  0  0  0  0  0  0  0  0  0
  1  2  1  0
  2  3  1  0
  3  4  1  0
  4  5  1  0
  5  6  1  0
  6  7  1  0
  4  8  1  0
  8  9  2  0
  9 10  1  0
 10 11  2  0
 11 12  1  0
 12 13  2  0
 13 14  1  0
 14 15  1  0
 14 16  2  0
 11 17  1  0
 17 18  1  0
 17 19  1  0
 17 20  1  0
  9 21  1  0
 21 22  1  0
 21 23  2  0
 13  8  1  0
M  CHG  4  14   1  15  -1  21   1  22  -1
M  END
>  <target>  (983) 
-5.68

$$$$

     RDKit          3D

  3  2  0  0  0  0  0  0  0  0999 V2000
   -1.0223    0.0718    0.0115 C   0  0  0  0  0  0  0  0  0  0  0  0
    0.4435   -0.3060    0.0060 C   0  0  0  0  0  0  0  0  0  0  0  0
    1.2259    0.8773   -0.0523 O   0  0  0  0  0  0  0  0  0  0  0  0
  1  2  1  0
  2  3  1  0
M  END
>  <target>  (984) 
1.1

$$$$

     RDKit          3D

 13 14  0  0  0  0  0  0  0  0999 V2000
    4.0622   -0.4533    0.3732 O   0  0  0  0  0  0  0  0  0  0  0  0
    2.8459   -0.2983    0.3365 C   0  0  0  0  0  0  0  0  0  0  0  0
    1.9931   -1.3494    0.4739 N   0  0  0  0  0  0  0  0  0  0  0  0
    0.7338   -1.3640   -0.0631 C   0  0  0  0  0  0  0  0  0  0  0  0
    0.2182   -2.4213   -0.4131 O   0  0  0  0  0  0  0  0  0  0  0  0
    0.0467   -0.0097   -0.1266 C   0  0  0  0  0  0  0  0  0  0  0  0
   -1.1811   -0.0317   -1.0611 C   0  0  0  0  0  0  0  0  0  0  0  0
   -2.3815   -0.1786   -0.1359 C   0  0  0  0  0  0  0  0  0  0  0  0
   -1.9906    0.6590    1.0652 C   0  0  0  0  0  0  0  0  0  0  0  0
   -0.5196    0.3195    1.2806 C   0  0  0  0  0  0  0  0  0  0  0  0
    1.0575    1.0564   -0.5137 C   0  0  0  0  0  0  0  0  0  0  0  0
    0.8195    2.0122   -1.2454 O   0  0  0  0  0  0  0  0  0  0  0  0
    2.2943    0.9137    0.0572 N   0  0  0  0  0  0  0  0  0  0  0  0
  1  2  2  0
  2  3  1  0
  3  4  1  0
  4  5  2  0
  4  6  1  0
  6  7  1  0
  7  8  1  0
  8  9  1  0
  9 10  1  0
  6 11  1  0
 11 12  2  0
 11 13  1  0
 10  6  1  0
 13  2  1  0
M  END
>  <target>  (985) 
-2.349

$$$$

     RDKit          3D

 17 17  0  0  0  0  0  0  0  0999 V2000
    3.3204    0.9616    1.2402 C   0  0  0  0  0  0  0  0  0  0  0  0
    2.4325    0.1704    0.5009 C   0  0  0  0  0  0  0  0  0  0  0  0
    1.4905    0.8354   -0.3016 N   0  0  0  0  0  0  0  0  0  0  0  0
    0.5143    0.2903   -1.0820 C   0  0  0  0  0  0  0  0  0  0  0  0
    0.2800   -0.8925   -1.2830 O   0  0  0  0  0  0  0  0  0  0  0  0
   -0.2198    1.3006   -1.6138 O   0  0  0  0  0  0  0  0  0  0  0  0
   -1.3483    0.9093   -2.4148 C   0  0  0  0  0  0  0  0  0  0  0  0
   -1.7202    2.1179   -3.2661 C   0  0  0  0  0  0  0  0  0  0  0  0
   -2.5435    0.4717   -1.5393 C   0  0  0  0  0  0  0  0  0  0  0  0
   -3.5332    1.1753   -1.3518 O   0  0  0  0  0  0  0  0  0  0  0  0
   -2.4045   -0.7849   -0.9841 N   0  0  0  0  0  0  0  0  0  0  0  0
   -3.3528   -1.3186   -0.0326 C   0  0  0  0  0  0  0  0  0  0  0  0
   -3.0721   -0.8217    1.3743 C   0  0  0  0  0  0  0  0  0  0  0  0
    2.5169   -1.2194    0.6062 C   0  0  0  0  0  0  0  0  0  0  0  0
    3.4681   -1.8094    1.4427 C   0  0  0  0  0  0  0  0  0  0  0  0
    4.3454   -1.0154    2.1765 C   0  0  0  0  0  0  0  0  0  0  0  0
    4.2734    0.3713    2.0742 C   0  0  0  0  0  0  0  0  0  0  0  0
  1  2  2  0
  2  3  1  0
  3  4  1  0
  4  5  2  0
  4  6  1  0
  6  7  1  0
  7  8  1  0
  7  9  1  0
  9 10  2  0
  9 11  1  0
 11 12  1  0
 12 13  1  0
  2 14  1  0
 14 15  2  0
 15 16  1  0
 16 17  2  0
 17  1  1  0
M  END
>  <target>  (986) 
-1.83

$$$$

     RDKit          3D

 26 28  0  0  0  0  0  0  0  0999 V2000
   -0.6032    1.3211   -3.3612 C   0  0  0  0  0  0  0  0  0  0  0  0
    0.1665    2.3654   -2.6018 C   0  0  0  0  0  0  0  0  0  0  0  0
    1.0159    3.2695   -3.4522 C   0  0  0  0  0  0  0  0  0  0  0  0
    0.1162    2.5070   -1.2628 C   0  0  0  0  0  0  0  0  0  0  0  0
   -0.6621    1.6996   -0.3123 C   0  0  0  0  0  0  0  0  0  0  0  0
   -1.1791    2.3572    0.9536 C   0  0  0  0  0  0  0  0  0  0  0  0
   -1.1458    1.6621    2.2617 C   0  0  0  0  0  0  0  0  0  0  0  0
   -1.9976    1.8545    3.1160 O   0  0  0  0  0  0  0  0  0  0  0  0
   -0.0772    0.8383    2.3694 O   0  0  0  0  0  0  0  0  0  0  0  0
   -0.0430    0.0729    3.5767 C   0  0  0  0  0  0  0  0  0  0  0  0
    0.9525   -1.0417    3.3785 C   0  0  0  0  0  0  0  0  0  0  0  0
    2.0235   -1.2243    4.2629 C   0  0  0  0  0  0  0  0  0  0  0  0
    2.9373   -2.2616    4.0620 C   0  0  0  0  0  0  0  0  0  0  0  0
    2.7955   -3.1190    2.9708 C   0  0  0  0  0  0  0  0  0  0  0  0
    1.7430   -2.9368    2.0757 C   0  0  0  0  0  0  0  0  0  0  0  0
    1.6545   -3.8261    1.0278 O   0  0  0  0  0  0  0  0  0  0  0  0
    1.2822   -3.3257   -0.1998 C   0  0  0  0  0  0  0  0  0  0  0  0
    1.8857   -2.2010   -0.7694 C   0  0  0  0  0  0  0  0  0  0  0  0
    1.4746   -1.7560   -2.0262 C   0  0  0  0  0  0  0  0  0  0  0  0
    0.4789   -2.4454   -2.7193 C   0  0  0  0  0  0  0  0  0  0  0  0
   -0.1039   -3.5834   -2.1601 C   0  0  0  0  0  0  0  0  0  0  0  0
    0.3030   -4.0286   -0.9020 C   0  0  0  0  0  0  0  0  0  0  0  0
    0.8069   -1.9233    2.2956 C   0  0  0  0  0  0  0  0  0  0  0  0
   -2.1547    1.9242   -0.1324 C   0  0  0  0  0  0  0  0  0  0  0  0
   -3.0048    0.6933    0.0765 C   0  0  0  0  0  0  0  0  0  0  0  0
   -2.8702    3.0214   -0.8832 C   0  0  0  0  0  0  0  0  0  0  0  0
  1  2  1  0
  2  3  1  0
  2  4  2  3
  4  5  1  0
  5  6  1  0
  6  7  1  0
  7  8  2  0
  7  9  1  0
  9 10  1  0
 10 11  1  0
 11 12  2  0
 12 13  1  0
 13 14  2  0
 14 15  1  0
 15 16  1  0
 16 17  1  0
 17 18  2  0
 18 19  1  0
 19 20  2  0
 20 21  1  0
 21 22  2  0
 15 23  2  0
  6 24  1  0
 24 25  1  0
 24 26  1  0
 22 17  1  0
 23 11  1  0
 24  5  1  0
M  END
>  <target>  (987) 
-5.24

$$$$

     RDKit          3D

 14 14  0  0  0  0  0  0  0  0999 V2000
    3.8276    0.4931   -0.9907 C   0  0  0  0  0  0  0  0  0  0  0  0
    3.4962   -0.4414    0.0765 N   0  0  0  0  0  0  0  0  0  0  0  0
    4.6323   -1.0763    0.7228 C   0  0  0  0  0  0  0  0  0  0  0  0
    2.3137   -0.3870    0.8050 C   0  0  0  0  0  0  0  0  0  0  0  0
    2.2086   -0.8259    1.9468 O   0  0  0  0  0  0  0  0  0  0  0  0
    1.2627    0.1956    0.1412 N   0  0  0  0  0  0  0  0  0  0  0  0
   -0.0652    0.3006    0.7558 C   0  0  0  0  0  0  0  0  0  0  0  0
   -0.8005   -1.0498    0.6679 C   0  0  0  0  0  0  0  0  0  0  0  0
   -1.4063   -1.3774   -0.7007 C   0  0  0  0  0  0  0  0  0  0  0  0
   -2.9232   -1.1943   -0.7843 C   0  0  0  0  0  0  0  0  0  0  0  0
   -3.4472    0.2422   -0.7209 C   0  0  0  0  0  0  0  0  0  0  0  0
   -3.2864    0.9176    0.6409 C   0  0  0  0  0  0  0  0  0  0  0  0
   -2.1179    1.8965    0.7555 C   0  0  0  0  0  0  0  0  0  0  0  0
   -0.7851    1.4998    0.1259 C   0  0  0  0  0  0  0  0  0  0  0  0
  1  2  1  0
  2  3  1  0
  2  4  1  0
  4  5  2  0
  4  6  1  0
  6  7  1  0
  7  8  1  0
  8  9  1  0
  9 10  1  0
 10 11  1  0
 11 12  1  0
 12 13  1  0
 13 14  1  0
 14  7  1  0
M  END
>  <target>  (988) 
-2.218

$$$$

     RDKit          3D

 22 26  0  0  0  0  0  0  0  0999 V2000
    0.6200   -1.5128    2.6366 Cl  0  0  0  0  0  0  0  0  0  0  0  0
    0.2729   -0.7414    1.0819 C   0  0  0  0  0  0  0  0  0  0  0  0
    0.0258    0.8372    1.0455 C   0  0  0  0  0  0  0  0  0  0  0  0
    0.1099    1.7468    2.5616 Cl  0  0  0  0  0  0  0  0  0  0  0  0
    0.8964    1.2921   -0.1840 C   0  0  0  0  0  0  0  0  0  0  0  0
    1.3311    3.0230   -0.3229 Cl  0  0  0  0  0  0  0  0  0  0  0  0
   -0.2729    0.7414   -1.0819 C   0  0  0  0  0  0  0  0  0  0  0  0
   -0.6200    1.5128   -2.6366 Cl  0  0  0  0  0  0  0  0  0  0  0  0
   -0.0258   -0.8372   -1.0455 C   0  0  0  0  0  0  0  0  0  0  0  0
   -0.1099   -1.7468   -2.5616 Cl  0  0  0  0  0  0  0  0  0  0  0  0
    1.2494   -0.9636   -0.1321 C   0  0  0  0  0  0  0  0  0  0  0  0
    2.1928   -2.4835   -0.1961 Cl  0  0  0  0  0  0  0  0  0  0  0  0
    2.0727    0.3173   -0.3053 C   0  0  0  0  0  0  0  0  0  0  0  0
    2.8590    0.4039   -1.8903 Cl  0  0  0  0  0  0  0  0  0  0  0  0
    3.2632    0.5334    0.9886 Cl  0  0  0  0  0  0  0  0  0  0  0  0
   -0.8964   -1.2921    0.1840 C   0  0  0  0  0  0  0  0  0  0  0  0
   -1.3311   -3.0230    0.3229 Cl  0  0  0  0  0  0  0  0  0  0  0  0
   -2.0727   -0.3173    0.3053 C   0  0  0  0  0  0  0  0  0  0  0  0
   -3.2632   -0.5334   -0.9886 Cl  0  0  0  0  0  0  0  0  0  0  0  0
   -2.8590   -0.4039    1.8903 Cl  0  0  0  0  0  0  0  0  0  0  0  0
   -1.2494    0.9636    0.1321 C   0  0  0  0  0  0  0  0  0  0  0  0
   -2.1928    2.4835    0.1961 Cl  0  0  0  0  0  0  0  0  0  0  0  0
  1  2  1  0
  2  3  1  0
  3  4  1  0
  3  5  1  0
  5  6  1  0
  5  7  1  0
  7  8  1  0
  7  9  1  0
  9 10  1  0
  9 11  1  0
 11 12  1  0
 11 13  1  0
 13 14  1  0
 13 15  1  0
  2 16  1  0
 16 17  1  0
 16 18  1  0
 18 19  1  0
 18 20  1  0
 18 21  1  0
 21 22  1  0
 11  2  1  0
 21  3  1  0
 13  5  1  0
 21  7  1  0
 16  9  1  0
M  END
>  <target>  (989) 
-6.8

$$$$

     RDKit          3D

  9  8  0  0  0  0  0  0  0  0999 V2000
   -4.4397    0.0049    0.2175 C   0  0  0  0  0  0  0  0  0  0  0  0
   -3.0814   -0.3069    0.8253 C   0  0  0  0  0  0  0  0  0  0  0  0
   -1.9455    0.0250   -0.1420 C   0  0  0  0  0  0  0  0  0  0  0  0
   -0.5810   -0.2900    0.4731 C   0  0  0  0  0  0  0  0  0  0  0  0
    0.5559    0.0422   -0.4949 C   0  0  0  0  0  0  0  0  0  0  0  0
    1.9212   -0.2731    0.1206 C   0  0  0  0  0  0  0  0  0  0  0  0
    3.0576    0.0593   -0.8522 C   0  0  0  0  0  0  0  0  0  0  0  0
    4.4314   -0.3016   -0.3088 C   0  0  0  0  0  0  0  0  0  0  0  0
    4.9990    0.9524    1.0675 Br  0  0  0  0  0  0  0  0  0  0  0  0
  1  2  1  0
  2  3  1  0
  3  4  1  0
  4  5  1  0
  5  6  1  0
  6  7  1  0
  7  8  1  0
  8  9  1  0
M  END
>  <target>  (990) 
-5.06

$$$$

     RDKit          3D

 21 22  0  0  0  0  0  0  0  0999 V2000
   -5.5471   -0.2055   -0.7312 C   0  0  0  0  0  0  0  0  0  0  0  0
   -4.1138    0.2660   -0.9204 C   0  0  0  0  0  0  0  0  0  0  0  0
   -3.6913    1.2291    0.1911 C   0  0  0  0  0  0  0  0  0  0  0  0
   -2.2670    1.7441    0.0032 C   0  0  0  0  0  0  0  0  0  0  0  0
   -1.2810    0.6952    0.1761 N   0  0  0  0  0  0  0  0  0  0  0  0
    0.0051    0.8842   -0.2803 C   0  0  0  0  0  0  0  0  0  0  0  0
    0.4194    1.8641   -0.8869 O   0  0  0  0  0  0  0  0  0  0  0  0
    0.8990   -0.1439    0.0867 N   0  0  0  0  0  0  0  0  0  0  0  0
    2.2911   -0.0046    0.0904 C   0  0  0  0  0  0  0  0  0  0  0  0
    2.9106    1.1353   -0.3683 N   0  0  0  0  0  0  0  0  0  0  0  0
    4.2597    1.3199   -0.3676 C   0  0  0  0  0  0  0  0  0  0  0  0
    5.1351    0.5692    0.0338 O   0  0  0  0  0  0  0  0  0  0  0  0
    4.5128    2.5444   -0.9123 O   0  0  0  0  0  0  0  0  0  0  0  0
    5.9005    2.8750   -0.9794 C   0  0  0  0  0  0  0  0  0  0  0  0
    2.8742   -1.0586    0.6099 N   0  0  0  0  0  0  0  0  0  0  0  0
    1.8826   -1.9601    0.8545 C   0  0  0  0  0  0  0  0  0  0  0  0
    1.9918   -3.2633    1.3637 C   0  0  0  0  0  0  0  0  0  0  0  0
    0.8411   -4.0481    1.4739 C   0  0  0  0  0  0  0  0  0  0  0  0
   -0.3944   -3.5494    1.0686 C   0  0  0  0  0  0  0  0  0  0  0  0
   -0.5228   -2.2487    0.5657 C   0  0  0  0  0  0  0  0  0  0  0  0
    0.6353   -1.4521    0.4991 C   0  0  0  0  0  0  0  0  0  0  0  0
  1  2  1  0
  2  3  1  0
  3  4  1  0
  4  5  1  0
  5  6  1  0
  6  7  2  0
  6  8  1  0
  8  9  1  0
  9 10  1  0
 10 11  1  0
 11 12  2  0
 11 13  1  0
 13 14  1  0
  9 15  2  0
 15 16  1  0
 16 17  2  0
 17 18  1  0
 18 19  2  0
 19 20  1  0
 20 21  2  0
 21  8  1  0
 21 16  1  0
M  END
>  <target>  (991) 
-4.883

$$$$

     RDKit          3D

 17 18  0  0  0  0  0  0  0  0999 V2000
   -4.0934    0.0412   -0.2331 C   0  0  0  0  0  0  0  0  0  0  0  0
   -2.8902   -0.5646    0.3230 N   0  0  0  0  0  0  0  0  0  0  0  0
   -3.1147   -1.8088    1.0608 C   0  0  0  0  0  0  0  0  0  0  0  0
   -1.6034   -0.1112    0.0311 C   0  0  0  0  0  0  0  0  0  0  0  0
   -1.1146    1.0789   -0.3777 C   0  0  0  0  0  0  0  0  0  0  0  0
   -1.8830    2.3482   -0.5695 C   0  0  0  0  0  0  0  0  0  0  0  0
    0.2714    1.0915   -0.6021 N   0  0  0  0  0  0  0  0  0  0  0  0
    0.7331    1.5041   -1.9405 C   0  0  0  0  0  0  0  0  0  0  0  0
    0.7336   -0.1930   -0.2221 N   0  0  0  0  0  0  0  0  0  0  0  0
    2.0832   -0.4125    0.1618 C   0  0  0  0  0  0  0  0  0  0  0  0
    2.5651   -1.7066    0.4009 C   0  0  0  0  0  0  0  0  0  0  0  0
    3.8958   -1.9245    0.7750 C   0  0  0  0  0  0  0  0  0  0  0  0
    4.7665   -0.8490    0.9215 C   0  0  0  0  0  0  0  0  0  0  0  0
    4.3063    0.4446    0.6976 C   0  0  0  0  0  0  0  0  0  0  0  0
    2.9761    0.6593    0.3222 C   0  0  0  0  0  0  0  0  0  0  0  0
   -0.3611   -0.9919    0.1324 C   0  0  0  0  0  0  0  0  0  0  0  0
   -0.3723   -2.1593    0.4999 O   0  0  0  0  0  0  0  0  0  0  0  0
  1  2  1  0
  2  3  1  0
  2  4  1  0
  4  5  2  0
  5  6  1  0
  5  7  1  0
  7  8  1  0
  7  9  1  0
  9 10  1  0
 10 11  2  0
 11 12  1  0
 12 13  2  0
 13 14  1  0
 14 15  2  0
  9 16  1  0
 16 17  2  0
 15 10  1  0
 16  4  1  0
M  END
>  <target>  (992) 
-0.364

$$$$

     RDKit          3D

  6  5  0  0  0  0  0  0  0  0999 V2000
   -2.4947    0.4764    0.6360 C   0  0  0  0  0  0  0  0  0  0  0  0
   -1.2761   -0.4308    0.7428 C   0  0  0  0  0  0  0  0  0  0  0  0
   -0.0096    0.2288    0.1855 C   0  0  0  0  0  0  0  0  0  0  0  0
    0.2841    1.4076    0.9320 O   0  0  0  0  0  0  0  0  0  0  0  0
    1.1854   -0.7293    0.2456 C   0  0  0  0  0  0  0  0  0  0  0  0
    2.4434   -0.1224   -0.3614 C   0  0  0  0  0  0  0  0  0  0  0  0
  1  2  1  0
  2  3  1  0
  3  4  1  0
  3  5  1  0
  5  6  1  0
M  END
>  <target>  (993) 
-0.24

$$$$

     RDKit          3D

 10 10  0  0  0  0  0  0  0  0999 V2000
   -2.6943    0.2138   -0.3522 C   0  0  0  0  0  0  0  0  0  0  0  0
   -1.2072    0.0934   -0.1836 C   0  0  0  0  0  0  0  0  0  0  0  0
   -0.6200   -1.1607    0.0340 C   0  0  0  0  0  0  0  0  0  0  0  0
    0.7594   -1.2752    0.2225 C   0  0  0  0  0  0  0  0  0  0  0  0
    1.5556   -0.1234    0.2034 C   0  0  0  0  0  0  0  0  0  0  0  0
    0.9797    1.1369    0.0015 C   0  0  0  0  0  0  0  0  0  0  0  0
   -0.4008    1.2400   -0.1860 C   0  0  0  0  0  0  0  0  0  0  0  0
    3.0054   -0.2377    0.4016 N   0  0  0  0  0  0  0  0  0  0  0  0
    3.6752    0.8052    0.3799 O   0  0  0  0  0  0  0  0  0  0  0  0
    3.4765   -1.3704    0.5792 O   0  0  0  0  0  0  0  0  0  0  0  0
  1  2  1  0
  2  3  2  0
  3  4  1  0
  4  5  2  0
  5  6  1  0
  6  7  2  0
  5  8  1  0
  8  9  1  0
  8 10  2  0
  7  2  1  0
M  CHG  2   8   1   9  -1
M  END
>  <target>  (994) 
-2.49

$$$$

     RDKit          3D

  7  6  0  0  0  0  0  0  0  0999 V2000
   -2.2856   -0.1814    0.9968 C   0  0  0  0  0  0  0  0  0  0  0  0
   -1.3018    0.3129   -0.0666 C   0  0  0  0  0  0  0  0  0  0  0  0
   -1.7799   -0.1220   -1.4528 C   0  0  0  0  0  0  0  0  0  0  0  0
    0.1146   -0.1989    0.2547 C   0  0  0  0  0  0  0  0  0  0  0  0
    1.1918    0.3670   -0.6714 C   0  0  0  0  0  0  0  0  0  0  0  0
    2.5858   -0.0689   -0.2390 C   0  0  0  0  0  0  0  0  0  0  0  0
    3.5389    0.4831   -1.1368 O   0  0  0  0  0  0  0  0  0  0  0  0
  1  2  1  0
  2  3  1  0
  2  4  1  0
  4  5  1  0
  5  6  1  0
  6  7  1  0
M  END
>  <target>  (995) 
-1.14

$$$$

     RDKit          3D

 23 26  0  0  0  0  0  0  0  0999 V2000
   -3.5642   -0.6450    1.1450 C   0  0  0  0  0  0  0  0  0  0  0  0
   -2.1965   -0.0964    0.6410 C   0  0  0  0  0  0  0  0  0  0  0  0
   -1.4724    0.4672    1.8771 C   0  0  0  0  0  0  0  0  0  0  0  0
   -0.0076    0.8145    1.6767 C   0  0  0  0  0  0  0  0  0  0  0  0
    0.8068   -0.3290    1.0510 C   0  0  0  0  0  0  0  0  0  0  0  0
    0.1235   -0.9862   -0.1726 C   0  0  0  0  0  0  0  0  0  0  0  0
    0.8659   -2.3030   -0.5391 C   0  0  0  0  0  0  0  0  0  0  0  0
    2.3720   -2.2591   -0.2618 C   0  0  0  0  0  0  0  0  0  0  0  0
    2.8635   -0.8438   -0.3545 C   0  0  0  0  0  0  0  0  0  0  0  0
    3.6651   -0.4547   -1.3596 C   0  0  0  0  0  0  0  0  0  0  0  0
    4.0863    0.9578   -1.4808 C   0  0  0  0  0  0  0  0  0  0  0  0
    4.6983    1.3236   -2.4801 O   0  0  0  0  0  0  0  0  0  0  0  0
    3.7815    1.8848   -0.3364 C   0  0  0  0  0  0  0  0  0  0  0  0
    2.4019    1.5675    0.2218 C   0  0  0  0  0  0  0  0  0  0  0  0
    2.2777    0.0994    0.6851 C   0  0  0  0  0  0  0  0  0  0  0  0
    3.0875   -0.0573    1.8543 O   0  0  0  0  0  0  0  0  0  0  0  0
   -1.3932   -1.2534   -0.0053 C   0  0  0  0  0  0  0  0  0  0  0  0
   -2.0743   -1.4289   -1.3788 C   0  0  0  0  0  0  0  0  0  0  0  0
   -2.6902   -0.0681   -1.7459 C   0  0  0  0  0  0  0  0  0  0  0  0
   -2.3848    0.8758   -0.5681 C   0  0  0  0  0  0  0  0  0  0  0  0
   -1.1776    1.5710   -0.8860 O   0  0  0  0  0  0  0  0  0  0  0  0
   -3.4405    1.8819   -0.3740 C   0  0  0  0  0  0  0  0  0  0  0  0
   -4.2958    2.7116   -0.2215 C   0  0  0  0  0  0  0  0  0  0  0  0
  1  2  1  0
  2  3  1  0
  3  4  1  0
  4  5  1  0
  5  6  1  0
  6  7  1  0
  7  8  1  0
  8  9  1  0
  9 10  2  0
 10 11  1  0
 11 12  2  0
 11 13  1  0
 13 14  1  0
 14 15  1  0
 15 16  1  0
  6 17  1  0
 17 18  1  0
 18 19  1  0
 19 20  1  0
 20 21  1  0
 20 22  1  0
 22 23  3  0
 15  5  1  0
 15  9  1  0
 17  2  1  0
 20  2  1  0
M  END
>  <target>  (996) 
-4.57

$$$$

     RDKit          3D

 22 23  0  0  0  0  0  0  0  0999 V2000
    3.7498   -0.4350   -0.7077 C   0  0  0  0  0  0  0  0  0  0  0  0
    2.7356   -1.3505   -0.0321 C   0  0  0  0  0  0  0  0  0  0  0  0
    3.1230   -1.6097    1.4183 C   0  0  0  0  0  0  0  0  0  0  0  0
    1.4473   -0.7090   -0.0160 O   0  0  0  0  0  0  0  0  0  0  0  0
    0.6928   -0.8277   -1.1459 C   0  0  0  0  0  0  0  0  0  0  0  0
    1.0145   -1.4879   -2.1326 O   0  0  0  0  0  0  0  0  0  0  0  0
   -0.6608   -0.0670   -1.0467 C   0  0  0  0  0  0  0  0  0  0  0  0
   -1.1908   -0.0065   -2.3947 O   0  0  0  0  0  0  0  0  0  0  0  0
   -1.7434   -0.8148   -0.2487 C   0  0  0  0  0  0  0  0  0  0  0  0
   -3.0756   -0.3495   -0.2958 C   0  0  0  0  0  0  0  0  0  0  0  0
   -4.0941   -0.9836    0.4196 C   0  0  0  0  0  0  0  0  0  0  0  0
   -3.7965   -2.0976    1.1962 C   0  0  0  0  0  0  0  0  0  0  0  0
   -5.1679   -2.9607    2.1686 Br  0  0  0  0  0  0  0  0  0  0  0  0
   -2.4925   -2.5806    1.2614 C   0  0  0  0  0  0  0  0  0  0  0  0
   -1.4727   -1.9443    0.5443 C   0  0  0  0  0  0  0  0  0  0  0  0
   -0.4323    1.3768   -0.5626 C   0  0  0  0  0  0  0  0  0  0  0  0
   -0.2021    2.4187   -1.4813 C   0  0  0  0  0  0  0  0  0  0  0  0
    0.0388    3.7251   -1.0463 C   0  0  0  0  0  0  0  0  0  0  0  0
    0.0615    4.0066    0.3161 C   0  0  0  0  0  0  0  0  0  0  0  0
    0.3885    5.7720    0.9060 Br  0  0  0  0  0  0  0  0  0  0  0  0
   -0.1511    2.9946    1.2473 C   0  0  0  0  0  0  0  0  0  0  0  0
   -0.3919    1.6886    0.8109 C   0  0  0  0  0  0  0  0  0  0  0  0
  1  2  1  0
  2  3  1  0
  2  4  1  0
  4  5  1  0
  5  6  2  0
  5  7  1  0
  7  8  1  0
  7  9  1  0
  9 10  2  0
 10 11  1  0
 11 12  2  0
 12 13  1  0
 12 14  1  0
 14 15  2  0
  7 16  1  0
 16 17  2  0
 17 18  1  0
 18 19  2  0
 19 20  1  0
 19 21  1  0
 21 22  2  0
 15  9  1  0
 22 16  1  0
M  END
>  <target>  (997) 
-4.93

$$$$

     RDKit          3D

 15 16  0  0  0  0  0  0  0  0999 V2000
    4.3459   -0.8924    0.7348 N   0  0  0  0  0  0  0  0  0  0  0  0
    3.0333   -0.4731    0.5799 C   0  0  0  0  0  0  0  0  0  0  0  0
    2.0409   -1.4550    0.1009 C   0  0  0  0  0  0  0  0  0  0  0  0
    0.7896   -1.2476   -0.1236 N   0  0  0  0  0  0  0  0  0  0  0  0
    0.2778    0.0158    0.1107 N   0  0  0  0  0  0  0  0  0  0  0  0
   -1.1330    0.1225   -0.1842 C   0  0  0  0  0  0  0  0  0  0  0  0
   -1.8647    1.3103   -0.0364 C   0  0  0  0  0  0  0  0  0  0  0  0
   -3.2334    1.3713   -0.3360 C   0  0  0  0  0  0  0  0  0  0  0  0
   -3.9052    0.2435   -0.7921 C   0  0  0  0  0  0  0  0  0  0  0  0
   -3.2093   -0.9474   -0.9494 C   0  0  0  0  0  0  0  0  0  0  0  0
   -1.8432   -1.0042   -0.6493 C   0  0  0  0  0  0  0  0  0  0  0  0
    1.0727    1.0697    0.5955 C   0  0  0  0  0  0  0  0  0  0  0  0
    0.6923    2.2142    0.8416 O   0  0  0  0  0  0  0  0  0  0  0  0
    2.5171    0.7389    0.8149 C   0  0  0  0  0  0  0  0  0  0  0  0
    3.5440    2.0227    1.3788 Cl  0  0  0  0  0  0  0  0  0  0  0  0
  1  2  1  0
  2  3  1  0
  3  4  2  0
  4  5  1  0
  5  6  1  0
  6  7  2  0
  7  8  1  0
  8  9  2  0
  9 10  1  0
 10 11  2  0
  5 12  1  0
 12 13  2  0
 12 14  1  0
 14 15  1  0
 11  6  1  0
 14  2  2  0
M  END
>  <target>  (998) 
-2.878

$$$$

     RDKit          3D

  6  5  0  0  0  0  0  0  0  0999 V2000
    1.9177   -0.7450   -0.5393 C   0  0  0  0  0  0  0  0  0  0  0  0
    0.9535    0.4309   -0.4316 C   0  0  0  0  0  0  0  0  0  0  0  0
   -0.5205    0.0320   -0.2209 C   0  0  0  0  0  0  0  0  0  0  0  0
   -0.7294   -0.7649    1.0676 C   0  0  0  0  0  0  0  0  0  0  0  0
   -1.4027    1.2844   -0.2025 C   0  0  0  0  0  0  0  0  0  0  0  0
   -0.9495   -0.7916   -1.3072 O   0  0  0  0  0  0  0  0  0  0  0  0
  1  2  1  0
  2  3  1  0
  3  4  1  0
  3  5  1  0
  3  6  1  0
M  END
>  <target>  (999) 
0.15

$$$$

     RDKit          3D

  8  8  0  0  0  0  0  0  0  0999 V2000
    2.3948    0.3957   -0.4740 C   0  0  0  0  0  0  0  0  0  0  0  0
    0.9513    0.1182   -0.1747 C   0  0  0  0  0  0  0  0  0  0  0  0
    0.1355    1.1165    0.3749 C   0  0  0  0  0  0  0  0  0  0  0  0
   -1.2167    0.8700    0.6252 C   0  0  0  0  0  0  0  0  0  0  0  0
   -1.7538   -0.3748    0.3144 C   0  0  0  0  0  0  0  0  0  0  0  0
   -3.0682   -0.6583    0.5413 O   0  0  0  0  0  0  0  0  0  0  0  0
   -0.9631   -1.3712   -0.2441 C   0  0  0  0  0  0  0  0  0  0  0  0
    0.3877   -1.1240   -0.4938 C   0  0  0  0  0  0  0  0  0  0  0  0
  1  2  1  0
  2  3  2  0
  3  4  1  0
  4  5  2  0
  5  6  1  0
  5  7  1  0
  7  8  2  0
  8  2  1  0
M  END
>  <target>  (1000) 
-0.73

$$$$

     RDKit          3D

  5  4  0  0  0  0  0  0  0  0999 V2000
   -1.5416   -0.2946    0.4388 C   0  0  0  0  0  0  0  0  0  0  0  0
   -0.2529   -0.1010   -0.3364 C   0  0  0  0  0  0  0  0  0  0  0  0
    0.7821    0.2420    0.5928 O   0  0  0  0  0  0  0  0  0  0  0  0
    1.9941    0.4429    0.0191 C   0  0  0  0  0  0  0  0  0  0  0  0
    2.2614    0.3589   -1.1685 O   0  0  0  0  0  0  0  0  0  0  0  0
  1  2  1  0
  2  3  1  0
  3  4  1  0
  4  5  2  0
M  END
>  <target>  (1001) 
0.15

$$$$

     RDKit          3D

  9  9  0  0  0  0  0  0  0  0999 V2000
    2.0319   -0.9268    0.9007 C   0  0  0  0  0  0  0  0  0  0  0  0
    1.3508    0.0962    0.1095 N   0  0  0  0  0  0  0  0  0  0  0  0
    2.0834    0.5814   -1.0585 C   0  0  0  0  0  0  0  0  0  0  0  0
   -0.0504    0.1091    0.0827 C   0  0  0  0  0  0  0  0  0  0  0  0
   -0.8238   -0.5922    1.0265 C   0  0  0  0  0  0  0  0  0  0  0  0
   -2.2257   -0.5696    1.0139 C   0  0  0  0  0  0  0  0  0  0  0  0
   -2.9031    0.1706    0.0551 C   0  0  0  0  0  0  0  0  0  0  0  0
   -2.1759    0.8903   -0.8826 C   0  0  0  0  0  0  0  0  0  0  0  0
   -0.7743    0.8611   -0.8615 C   0  0  0  0  0  0  0  0  0  0  0  0
  1  2  1  0
  2  3  1  0
  2  4  1  0
  4  5  2  0
  5  6  1  0
  6  7  2  0
  7  8  1  0
  8  9  2  0
  9  4  1  0
M  END
>  <target>  (1002) 
-1.92

$$$$

     RDKit          3D

 10 11  0  0  0  0  0  0  0  0999 V2000
    2.5793    0.5208    0.2305 C   0  0  0  0  0  0  0  0  0  0  0  0
    2.4635   -0.8971   -0.3212 C   0  0  0  0  0  0  0  0  0  0  0  0
    1.1540   -1.5634    0.0958 C   0  0  0  0  0  0  0  0  0  0  0  0
   -0.0583   -0.7091   -0.2969 C   0  0  0  0  0  0  0  0  0  0  0  0
   -1.3691   -1.3752    0.1412 C   0  0  0  0  0  0  0  0  0  0  0  0
   -2.5793   -0.5208   -0.2305 C   0  0  0  0  0  0  0  0  0  0  0  0
   -2.4635    0.8971    0.3212 C   0  0  0  0  0  0  0  0  0  0  0  0
   -1.1540    1.5634   -0.0958 C   0  0  0  0  0  0  0  0  0  0  0  0
    0.0583    0.7091    0.2969 C   0  0  0  0  0  0  0  0  0  0  0  0
    1.3691    1.3752   -0.1412 C   0  0  0  0  0  0  0  0  0  0  0  0
  1  2  1  0
  2  3  1  0
  3  4  1  0
  4  5  1  0
  5  6  1  0
  6  7  1  0
  7  8  1  0
  8  9  1  0
  9 10  1  0
 10  1  1  0
  9  4  1  0
M  END
>  <target>  (1003) 
-5.19

$$$$

     RDKit          3D

  5  4  0  0  0  0  0  0  0  0999 V2000
   -2.1245   -0.3712    0.1360 C   0  0  0  0  0  0  0  0  0  0  0  0
   -0.8801    0.2640   -0.4639 C   0  0  0  0  0  0  0  0  0  0  0  0
    0.3714   -0.0798    0.3461 C   0  0  0  0  0  0  0  0  0  0  0  0
    1.6118    0.5639   -0.2673 C   0  0  0  0  0  0  0  0  0  0  0  0
    3.0921    0.1568    0.7022 S   0  0  0  0  0  0  0  0  0  0  0  0
  1  2  1  0
  2  3  1  0
  3  4  1  0
  4  5  1  0
M  END
>  <target>  (1004) 
-2.18

$$$$

     RDKit          3D

 20 24  0  0  0  0  0  0  0  0999 V2000
    3.2587    2.3680    0.7716 C   0  0  0  0  0  0  0  0  0  0  0  0
    3.7197    1.1696    1.2719 C   0  0  0  0  0  0  0  0  0  0  0  0
    2.8987    0.0444    1.2124 C   0  0  0  0  0  0  0  0  0  0  0  0
    1.5904    0.0666    0.6544 C   0  0  0  0  0  0  0  0  0  0  0  0
    1.1142    1.3045    0.1376 C   0  0  0  0  0  0  0  0  0  0  0  0
    1.9812    2.4295    0.2166 C   0  0  0  0  0  0  0  0  0  0  0  0
   -0.1991    1.3831   -0.4369 C   0  0  0  0  0  0  0  0  0  0  0  0
   -0.7539    2.5743   -0.9750 C   0  0  0  0  0  0  0  0  0  0  0  0
   -2.0327    2.6272   -1.5283 C   0  0  0  0  0  0  0  0  0  0  0  0
   -2.8115    1.4835   -1.5653 C   0  0  0  0  0  0  0  0  0  0  0  0
   -2.3183    0.2830   -1.0509 C   0  0  0  0  0  0  0  0  0  0  0  0
   -3.1197   -0.8595   -1.0977 C   0  0  0  0  0  0  0  0  0  0  0  0
   -2.6549   -2.0679   -0.5933 C   0  0  0  0  0  0  0  0  0  0  0  0
   -1.3795   -2.1576   -0.0320 C   0  0  0  0  0  0  0  0  0  0  0  0
   -0.9388   -3.3847    0.4671 C   0  0  0  0  0  0  0  0  0  0  0  0
    0.3222   -3.4943    1.0274 C   0  0  0  0  0  0  0  0  0  0  0  0
    1.1495   -2.3737    1.0908 C   0  0  0  0  0  0  0  0  0  0  0  0
    0.7563   -1.1006    0.6000 C   0  0  0  0  0  0  0  0  0  0  0  0
   -0.5381   -1.0089    0.0302 C   0  0  0  0  0  0  0  0  0  0  0  0
   -1.0121    0.2231   -0.4842 C   0  0  0  0  0  0  0  0  0  0  0  0
  1  2  2  0
  2  3  1  0
  3  4  2  0
  4  5  1  0
  5  6  2  0
  5  7  1  0
  7  8  2  0
  8  9  1  0
  9 10  2  0
 10 11  1  0
 11 12  2  0
 12 13  1  0
 13 14  2  0
 14 15  1  0
 15 16  2  0
 16 17  1  0
 17 18  2  0
 18 19  1  0
 19 20  2  0
  6  1  1  0
 18  4  1  0
 20  7  1  0
 20 11  1  0
 19 14  1  0
M  END
>  <target>  (1005) 
-7.8

$$$$

     RDKit          3D

  6  5  0  0  0  0  0  0  0  0999 V2000
    1.4953    1.5591    0.2548 Cl  0  0  0  0  0  0  0  0  0  0  0  0
    0.6674    0.0424    0.0676 C   0  0  0  0  0  0  0  0  0  0  0  0
   -0.6674   -0.0424   -0.0676 C   0  0  0  0  0  0  0  0  0  0  0  0
   -1.6992    1.3563   -0.0689 Cl  0  0  0  0  0  0  0  0  0  0  0  0
   -1.4953   -1.5591   -0.2548 Cl  0  0  0  0  0  0  0  0  0  0  0  0
    1.6992   -1.3563    0.0689 Cl  0  0  0  0  0  0  0  0  0  0  0  0
  1  2  1  0
  2  3  2  3
  3  4  1  0
  3  5  1  0
  2  6  1  0
M  END
>  <target>  (1006) 
-2.54

$$$$

     RDKit          3D

  6  5  0  0  0  0  0  0  0  0999 V2000
   -2.5394   -0.1742   -0.0512 C   0  0  0  0  0  0  0  0  0  0  0  0
   -1.2322    0.5888   -0.1672 C   0  0  0  0  0  0  0  0  0  0  0  0
   -0.0227   -0.2616    0.1847 C   0  0  0  0  0  0  0  0  0  0  0  0
   -0.1248   -1.4396    0.5237 O   0  0  0  0  0  0  0  0  0  0  0  0
    1.3215    0.4412    0.0896 C   0  0  0  0  0  0  0  0  0  0  0  0
    2.4840   -0.4645    0.4538 C   0  0  0  0  0  0  0  0  0  0  0  0
  1  2  1  0
  2  3  1  0
  3  4  2  0
  3  5  1  0
  5  6  1  0
M  END
>  <target>  (1007) 
-0.28

$$$$

     RDKit          3D

  4  3  0  0  0  0  0  0  0  0999 V2000
   -1.0288   -0.1925   -0.0678 C   0  0  0  0  0  0  0  0  0  0  0  0
    0.1292    0.3773    0.2882 C   0  0  0  0  0  0  0  0  0  0  0  0
    1.3863   -0.0886   -0.1842 C   0  0  0  0  0  0  0  0  0  0  0  0
    2.4141   -0.4652   -0.5670 N   0  0  0  0  0  0  0  0  0  0  0  0
  1  2  2  0
  2  3  1  0
  3  4  3  0
M  END
>  <target>  (1008) 
0.15

$$$$

     RDKit          3D

 29 32  0  0  0  0  0  0  0  0999 V2000
    3.1585    2.1561   -2.2164 C   0  0  0  0  0  0  0  0  0  0  0  0
    2.3533    1.4620   -1.1210 C   0  0  0  0  0  0  0  0  0  0  0  0
    0.9019    1.1745   -1.5670 C   0  0  0  0  0  0  0  0  0  0  0  0
    0.6148   -0.3007   -1.2204 C   0  0  0  0  0  0  0  0  0  0  0  0
   -0.8455   -0.6582   -0.8637 C   0  0  0  0  0  0  0  0  0  0  0  0
   -1.8033   -0.1939   -1.9709 C   0  0  0  0  0  0  0  0  0  0  0  0
   -3.2255   -0.6708   -1.7199 C   0  0  0  0  0  0  0  0  0  0  0  0
   -4.0077   -0.1799   -2.7230 F   0  0  0  0  0  0  0  0  0  0  0  0
   -3.7082   -0.2143   -0.3675 C   0  0  0  0  0  0  0  0  0  0  0  0
   -4.8315    0.5217   -0.2662 C   0  0  0  0  0  0  0  0  0  0  0  0
   -5.3272    1.0300    1.0269 C   0  0  0  0  0  0  0  0  0  0  0  0
   -6.3753    1.6563    1.1124 O   0  0  0  0  0  0  0  0  0  0  0  0
   -4.5010    0.7440    2.2134 C   0  0  0  0  0  0  0  0  0  0  0  0
   -3.3814    0.0128    2.1197 C   0  0  0  0  0  0  0  0  0  0  0  0
   -2.8245   -0.6066    0.8359 C   0  0  0  0  0  0  0  0  0  0  0  0
   -2.9386   -2.1368    1.0434 C   0  0  0  0  0  0  0  0  0  0  0  0
   -1.3175   -0.1668    0.5383 C   0  0  0  0  0  0  0  0  0  0  0  0
   -1.3039    1.2110    0.5098 F   0  0  0  0  0  0  0  0  0  0  0  0
   -0.2671   -0.5790    1.6082 C   0  0  0  0  0  0  0  0  0  0  0  0
   -0.5425    0.0154    2.8785 O   0  0  0  0  0  0  0  0  0  0  0  0
    1.1600   -0.1407    1.2393 C   0  0  0  0  0  0  0  0  0  0  0  0
    1.6524   -0.6589   -0.1289 C   0  0  0  0  0  0  0  0  0  0  0  0
    1.8748   -2.1834   -0.0564 C   0  0  0  0  0  0  0  0  0  0  0  0
    2.9140    0.0977   -0.6660 C   0  0  0  0  0  0  0  0  0  0  0  0
    3.3993   -0.5917   -1.8364 O   0  0  0  0  0  0  0  0  0  0  0  0
    4.1068    0.1385    0.3121 C   0  0  0  0  0  0  0  0  0  0  0  0
    4.9213   -0.7963    0.3304 O   0  0  0  0  0  0  0  0  0  0  0  0
    4.3015    1.3398    1.2262 C   0  0  0  0  0  0  0  0  0  0  0  0
    5.2960    1.0893    2.2097 O   0  0  0  0  0  0  0  0  0  0  0  0
  1  2  1  0
  2  3  1  0
  3  4  1  0
  4  5  1  0
  5  6  1  0
  6  7  1  0
  7  8  1  0
  7  9  1  0
  9 10  2  0
 10 11  1  0
 11 12  2  0
 11 13  1  0
 13 14  2  0
 14 15  1  0
 15 16  1  0
 15 17  1  0
 17 18  1  0
 17 19  1  0
 19 20  1  0
 19 21  1  0
 21 22  1  0
 22 23  1  0
 22 24  1  0
 24 25  1  0
 24 26  1  0
 26 27  2  0
 26 28  1  0
 28 29  1  0
 24  2  1  0
 22  4  1  0
 17  5  1  0
 15  9  1  0
M  END
>  <target>  (1009) 
-5.6129999999999995

$$$$

     RDKit          3D

  7  6  0  0  0  0  0  0  0  0999 V2000
   -3.0850    0.2084    0.0267 C   0  0  0  0  0  0  0  0  0  0  0  0
   -1.7677   -0.5505    0.0131 C   0  0  0  0  0  0  0  0  0  0  0  0
   -0.5727    0.4018    0.0141 C   0  0  0  0  0  0  0  0  0  0  0  0
    0.7482   -0.3640    0.0004 C   0  0  0  0  0  0  0  0  0  0  0  0
    1.9554    0.5573    0.0012 C   0  0  0  0  0  0  0  0  0  0  0  0
    1.8597    1.7835    0.0117 O   0  0  0  0  0  0  0  0  0  0  0  0
    3.3032   -0.1161   -0.0120 C   0  0  0  0  0  0  0  0  0  0  0  0
  1  2  1  0
  2  3  1  0
  3  4  1  0
  4  5  1  0
  5  6  2  0
  5  7  1  0
M  END
>  <target>  (1010) 
-0.8

$$$$

     RDKit          3D

 16 16  0  0  0  0  0  0  0  0999 V2000
   -4.2829   -2.9516    1.6893 C   0  0  0  0  0  0  0  0  0  0  0  0
   -3.0668   -2.0547    1.5187 C   0  0  0  0  0  0  0  0  0  0  0  0
   -3.0507   -1.5192    0.1694 N   0  0  0  0  0  0  0  0  0  0  0  0
   -2.0230   -0.6148   -0.0805 C   0  0  0  0  0  0  0  0  0  0  0  0
   -0.8277   -0.7889    0.4713 N   0  0  0  0  0  0  0  0  0  0  0  0
    0.0987    0.1099    0.1678 C   0  0  0  0  0  0  0  0  0  0  0  0
    1.3275   -0.1026    0.7650 N   0  0  0  0  0  0  0  0  0  0  0  0
    2.5887    0.2645    0.1133 C   0  0  0  0  0  0  0  0  0  0  0  0
    3.7175   -0.3383    0.9769 C   0  0  0  0  0  0  0  0  0  0  0  0
    2.6940   -0.3319   -1.2979 C   0  0  0  0  0  0  0  0  0  0  0  0
    2.7849    1.7873    0.0865 C   0  0  0  0  0  0  0  0  0  0  0  0
   -0.1088    1.1434   -0.6278 N   0  0  0  0  0  0  0  0  0  0  0  0
   -1.3378    1.2281   -1.1213 C   0  0  0  0  0  0  0  0  0  0  0  0
   -1.6673    2.2710   -1.9630 O   0  0  0  0  0  0  0  0  0  0  0  0
   -0.5906    3.1705   -2.1899 C   0  0  0  0  0  0  0  0  0  0  0  0
   -2.3320    0.3849   -0.8861 N   0  0  0  0  0  0  0  0  0  0  0  0
  1  2  1  0
  2  3  1  0
  3  4  1  0
  4  5  2  0
  5  6  1  0
  6  7  1  0
  7  8  1  0
  8  9  1  0
  8 10  1  0
  8 11  1  0
  6 12  2  0
 12 13  1  0
 13 14  1  0
 14 15  1  0
 13 16  2  0
 16  4  1  0
M  END
>  <target>  (1011) 
-3.239

$$$$

     RDKit          3D

  8  7  0  0  0  0  0  0  0  0999 V2000
    3.5421    0.7360   -0.8138 C   0  0  0  0  0  0  0  0  0  0  0  0
    2.4102    0.7369    0.2014 C   0  0  0  0  0  0  0  0  0  0  0  0
    1.2134   -0.0772   -0.2929 C   0  0  0  0  0  0  0  0  0  0  0  0
    0.0758   -0.0678    0.7322 C   0  0  0  0  0  0  0  0  0  0  0  0
   -1.1101   -0.9740    0.3458 C   0  0  0  0  0  0  0  0  0  0  0  0
   -2.1437   -0.9806    1.4775 C   0  0  0  0  0  0  0  0  0  0  0  0
   -1.7658   -0.6294   -1.0063 C   0  0  0  0  0  0  0  0  0  0  0  0
   -2.2967    0.7924   -1.1282 C   0  0  0  0  0  0  0  0  0  0  0  0
  1  2  1  0
  2  3  1  0
  3  4  1  0
  4  5  1  0
  5  6  1  0
  5  7  1  0
  7  8  1  0
M  END
>  <target>  (1012) 
-5.16

$$$$

     RDKit          3D

  4  3  0  0  0  0  0  0  0  0999 V2000
    2.0975   -0.9642   -0.1256 Br  0  0  0  0  0  0  0  0  0  0  0  0
    0.6682    0.3501    0.0221 C   0  0  0  0  0  0  0  0  0  0  0  0
   -0.6682   -0.3501   -0.0221 C   0  0  0  0  0  0  0  0  0  0  0  0
   -2.0975    0.9642    0.1256 Br  0  0  0  0  0  0  0  0  0  0  0  0
  1  2  1  0
  2  3  1  0
  3  4  1  0
M  END
>  <target>  (1013) 
-1.68

$$$$

     RDKit          3D

 14 14  0  0  0  0  0  0  0  0999 V2000
    4.0560    1.3382    1.0180 C   0  0  0  0  0  0  0  0  0  0  0  0
    3.1483    0.8339    0.0248 N   0  0  0  0  0  0  0  0  0  0  0  0
    2.1013    0.0150    0.3502 C   0  0  0  0  0  0  0  0  0  0  0  0
    1.9006   -0.4411    1.4672 O   0  0  0  0  0  0  0  0  0  0  0  0
    1.3204   -0.1862   -0.7762 O   0  0  0  0  0  0  0  0  0  0  0  0
    0.2126   -1.0124   -0.5509 C   0  0  0  0  0  0  0  0  0  0  0  0
    0.3987   -2.3930   -0.6681 C   0  0  0  0  0  0  0  0  0  0  0  0
   -0.6842   -3.2492   -0.4913 C   0  0  0  0  0  0  0  0  0  0  0  0
   -1.9433   -2.7230   -0.2102 C   0  0  0  0  0  0  0  0  0  0  0  0
   -2.1243   -1.3395   -0.1128 C   0  0  0  0  0  0  0  0  0  0  0  0
   -1.0495   -0.4524   -0.2947 C   0  0  0  0  0  0  0  0  0  0  0  0
   -1.2504    1.0496   -0.1913 C   0  0  0  0  0  0  0  0  0  0  0  0
   -2.3276    1.5551   -1.1564 C   0  0  0  0  0  0  0  0  0  0  0  0
   -1.5715    1.4629    1.2471 C   0  0  0  0  0  0  0  0  0  0  0  0
  1  2  1  0
  2  3  1  0
  3  4  2  0
  3  5  1  0
  5  6  1  0
  6  7  2  0
  7  8  1  0
  8  9  2  0
  9 10  1  0
 10 11  2  0
 11 12  1  0
 12 13  1  0
 12 14  1  0
 11  6  1  0
M  END
>  <target>  (1014) 
-2.863

$$$$

     RDKit          3D

 14 15  0  0  0  0  0  0  0  0999 V2000
   -0.8238   -2.0251    1.6023 O   0  0  0  0  0  0  0  0  0  0  0  0
   -1.3729   -1.1585    0.9449 C   0  0  0  0  0  0  0  0  0  0  0  0
   -2.7616   -1.0353    0.9014 N   0  0  0  0  0  0  0  0  0  0  0  0
   -3.1408    0.2062    0.2935 C   0  0  0  0  0  0  0  0  0  0  0  0
   -1.8961    0.6239   -0.4704 C   0  0  0  0  0  0  0  0  0  0  0  0
   -0.8352   -0.1396    0.1495 N   0  0  0  0  0  0  0  0  0  0  0  0
    0.5020    0.0718   -0.1038 C   0  0  0  0  0  0  0  0  0  0  0  0
    0.9309    1.0191   -0.9156 N   0  0  0  0  0  0  0  0  0  0  0  0
    2.3138    0.9954   -0.9723 C   0  0  0  0  0  0  0  0  0  0  0  0
    2.8995    0.0283   -0.1935 C   0  0  0  0  0  0  0  0  0  0  0  0
    1.7254   -0.8755    0.6292 S   0  0  0  0  0  0  0  0  0  0  0  0
    4.2958   -0.2299   -0.0523 N   0  0  0  0  0  0  0  0  0  0  0  0
    4.6527   -1.1424    0.7021 O   0  0  0  0  0  0  0  0  0  0  0  0
    5.0541    0.4964   -0.7091 O   0  0  0  0  0  0  0  0  0  0  0  0
  1  2  2  0
  2  3  1  0
  3  4  1  0
  4  5  1  0
  5  6  1  0
  6  7  1  0
  7  8  2  0
  8  9  1  0
  9 10  2  0
 10 11  1  0
 10 12  1  0
 12 13  1  0
 12 14  2  0
  6  2  1  0
 11  7  1  0
M  CHG  2  12   1  13  -1
M  END
>  <target>  (1015) 
-3.22

$$$$

     RDKit          3D

 17 20  0  0  0  0  0  0  0  0999 V2000
   -0.6105   -1.5649   -0.0494 C   0  0  0  0  0  0  0  0  0  0  0  0
   -1.9992   -0.9638   -0.0106 C   0  0  0  0  0  0  0  0  0  0  0  0
   -3.2157   -1.6223    0.0574 C   0  0  0  0  0  0  0  0  0  0  0  0
   -4.3778   -0.8492    0.0821 C   0  0  0  0  0  0  0  0  0  0  0  0
   -4.3089    0.5536    0.0389 C   0  0  0  0  0  0  0  0  0  0  0  0
   -3.0755    1.2097   -0.0298 C   0  0  0  0  0  0  0  0  0  0  0  0
   -1.9223    0.4435   -0.0543 C   0  0  0  0  0  0  0  0  0  0  0  0
   -0.5290    0.8313   -0.1217 C   0  0  0  0  0  0  0  0  0  0  0  0
    0.0489    2.0858   -0.1811 C   0  0  0  0  0  0  0  0  0  0  0  0
    1.4436    2.1745   -0.2400 C   0  0  0  0  0  0  0  0  0  0  0  0
    2.2608    1.0211   -0.2397 C   0  0  0  0  0  0  0  0  0  0  0  0
    3.6593    1.1265   -0.2992 C   0  0  0  0  0  0  0  0  0  0  0  0
    4.4658   -0.0132   -0.2990 C   0  0  0  0  0  0  0  0  0  0  0  0
    3.8864   -1.2767   -0.2392 C   0  0  0  0  0  0  0  0  0  0  0  0
    2.4984   -1.4047   -0.1795 C   0  0  0  0  0  0  0  0  0  0  0  0
    1.6709   -0.2655   -0.1789 C   0  0  0  0  0  0  0  0  0  0  0  0
    0.2747   -0.3323   -0.1206 C   0  0  0  0  0  0  0  0  0  0  0  0
  1  2  1  0
  2  3  2  0
  3  4  1  0
  4  5  2  0
  5  6  1  0
  6  7  2  0
  7  8  1  0
  8  9  2  0
  9 10  1  0
 10 11  2  0
 11 12  1  0
 12 13  2  0
 13 14  1  0
 14 15  2  0
 15 16  1  0
 16 17  2  0
 17  1  1  0
  7  2  1  0
 17  8  1  0
 16 11  1  0
M  END
>  <target>  (1016) 
-6.68

$$$$

     RDKit          3D

  9  9  0  0  0  0  0  0  0  0999 V2000
    2.5633   -0.6631   -0.5242 C   0  0  0  0  0  0  0  0  0  0  0  0
    1.7537    0.4981   -0.4017 O   0  0  0  0  0  0  0  0  0  0  0  0
    0.4268    0.3211   -0.1068 C   0  0  0  0  0  0  0  0  0  0  0  0
   -0.1851   -0.9236    0.0817 C   0  0  0  0  0  0  0  0  0  0  0  0
   -1.5496   -1.0069    0.3805 C   0  0  0  0  0  0  0  0  0  0  0  0
   -2.3169    0.1498    0.4942 C   0  0  0  0  0  0  0  0  0  0  0  0
   -1.7209    1.3954    0.3090 C   0  0  0  0  0  0  0  0  0  0  0  0
   -0.3575    1.4810    0.0104 C   0  0  0  0  0  0  0  0  0  0  0  0
    0.3232    3.0568   -0.2080 Cl  0  0  0  0  0  0  0  0  0  0  0  0
  1  2  1  0
  2  3  1  0
  3  4  2  0
  4  5  1  0
  5  6  2  0
  6  7  1  0
  7  8  2  0
  8  9  1  0
  8  3  1  0
M  END
>  <target>  (1017) 
-2.46

$$$$

     RDKit          3D

 16 16  0  0  0  0  0  0  0  0999 V2000
   -2.8762   -2.0886    0.0048 C   0  0  0  0  0  0  0  0  0  0  0  0
   -2.7263   -0.7220   -0.3280 O   0  0  0  0  0  0  0  0  0  0  0  0
   -1.4055    0.0531    0.2012 P   0  0  0  0  0  0  0  0  0  0  0  0
   -1.2109    0.2116    2.1252 S   0  0  0  0  0  0  0  0  0  0  0  0
   -1.5164    1.4425   -0.6261 O   0  0  0  0  0  0  0  0  0  0  0  0
   -2.5961    2.3094   -0.3383 C   0  0  0  0  0  0  0  0  0  0  0  0
   -0.2344   -0.7176   -0.6165 O   0  0  0  0  0  0  0  0  0  0  0  0
    1.0859   -0.4155   -0.4214 C   0  0  0  0  0  0  0  0  0  0  0  0
    1.5975    0.8021   -0.8678 C   0  0  0  0  0  0  0  0  0  0  0  0
    2.9511    1.0993   -0.6782 C   0  0  0  0  0  0  0  0  0  0  0  0
    3.5168    2.6280   -1.2498 Cl  0  0  0  0  0  0  0  0  0  0  0  0
    3.7896    0.1687   -0.0503 C   0  0  0  0  0  0  0  0  0  0  0  0
    5.6375    0.4922    0.2466 Br  0  0  0  0  0  0  0  0  0  0  0  0
    3.2750   -1.0593    0.3796 C   0  0  0  0  0  0  0  0  0  0  0  0
    1.9250   -1.3521    0.1875 C   0  0  0  0  0  0  0  0  0  0  0  0
    1.3205   -2.8787    0.7164 Cl  0  0  0  0  0  0  0  0  0  0  0  0
  1  2  1  0
  2  3  1  0
  3  4  2  0
  3  5  1  0
  5  6  1  0
  3  7  1  0
  7  8  1  0
  8  9  2  0
  9 10  1  0
 10 11  1  0
 10 12  2  0
 12 13  1  0
 12 14  1  0
 14 15  2  0
 15 16  1  0
 15  8  1  0
M  END
>  <target>  (1018) 
-6.09

$$$$

     RDKit          3D

 20 21  0  0  0  0  0  0  0  0999 V2000
   -6.5557    1.3081    0.2240 Cl  0  0  0  0  0  0  0  0  0  0  0  0
   -5.1661    0.1841    0.3169 C   0  0  0  0  0  0  0  0  0  0  0  0
   -5.4310   -1.1346   -0.8608 Cl  0  0  0  0  0  0  0  0  0  0  0  0
   -3.8858    0.9393    0.0008 C   0  0  0  0  0  0  0  0  0  0  0  0
   -2.6783    0.1095    0.3632 C   0  0  0  0  0  0  0  0  0  0  0  0
   -2.7006   -0.7175    1.2673 O   0  0  0  0  0  0  0  0  0  0  0  0
   -1.5486    0.4716   -0.3473 N   0  0  0  0  0  0  0  0  0  0  0  0
   -0.2947   -0.1216   -0.2405 C   0  0  0  0  0  0  0  0  0  0  0  0
   -0.0110   -1.4334   -0.1675 C   0  0  0  0  0  0  0  0  0  0  0  0
   -1.1986   -2.6816   -0.3806 Cl  0  0  0  0  0  0  0  0  0  0  0  0
    1.3904   -1.9304   -0.0368 C   0  0  0  0  0  0  0  0  0  0  0  0
    1.6704   -3.1234    0.0119 O   0  0  0  0  0  0  0  0  0  0  0  0
    2.4750   -0.9350    0.0306 C   0  0  0  0  0  0  0  0  0  0  0  0
    3.7988   -1.3597    0.2118 C   0  0  0  0  0  0  0  0  0  0  0  0
    4.8343   -0.4250    0.2629 C   0  0  0  0  0  0  0  0  0  0  0  0
    4.5536    0.9338    0.1305 C   0  0  0  0  0  0  0  0  0  0  0  0
    3.2376    1.3592   -0.0523 C   0  0  0  0  0  0  0  0  0  0  0  0
    2.1983    0.4202   -0.1002 C   0  0  0  0  0  0  0  0  0  0  0  0
    0.8160    0.8773   -0.2900 C   0  0  0  0  0  0  0  0  0  0  0  0
    0.5565    2.0642   -0.4776 O   0  0  0  0  0  0  0  0  0  0  0  0
  1  2  1  0
  2  3  1  0
  2  4  1  0
  4  5  1  0
  5  6  2  0
  5  7  1  0
  7  8  1  0
  8  9  2  0
  9 10  1  0
  9 11  1  0
 11 12  2  0
 11 13  1  0
 13 14  2  0
 14 15  1  0
 15 16  2  0
 16 17  1  0
 17 18  2  0
 18 19  1  0
 19 20  2  0
 18 13  1  0
 19  8  1  0
M  END
>  <target>  (1019) 
-5.03

$$$$

     RDKit          3D

 18 19  0  0  0  0  0  0  0  0999 V2000
   -1.2893    2.3572   -2.6022 Cl  0  0  0  0  0  0  0  0  0  0  0  0
    0.0966    1.9536   -1.5333 C   0  0  0  0  0  0  0  0  0  0  0  0
    1.5971    2.3173   -2.4538 Cl  0  0  0  0  0  0  0  0  0  0  0  0
    0.0526    0.4715   -1.0651 C   0  0  0  0  0  0  0  0  0  0  0  0
   -1.2437    0.0512   -0.3599 C   0  0  0  0  0  0  0  0  0  0  0  0
   -1.7767   -1.2257   -0.6167 C   0  0  0  0  0  0  0  0  0  0  0  0
   -2.9453   -1.6562    0.0164 C   0  0  0  0  0  0  0  0  0  0  0  0
   -3.5910   -0.8178    0.9193 C   0  0  0  0  0  0  0  0  0  0  0  0
   -5.0293   -1.3458    1.7011 Cl  0  0  0  0  0  0  0  0  0  0  0  0
   -3.0756    0.4452    1.1967 C   0  0  0  0  0  0  0  0  0  0  0  0
   -1.9057    0.8772    0.5643 C   0  0  0  0  0  0  0  0  0  0  0  0
    1.2632    0.0756   -0.2111 C   0  0  0  0  0  0  0  0  0  0  0  0
    1.5965    0.7625    0.9687 C   0  0  0  0  0  0  0  0  0  0  0  0
    2.7030    0.3750    1.7296 C   0  0  0  0  0  0  0  0  0  0  0  0
    3.4839   -0.7028    1.3214 C   0  0  0  0  0  0  0  0  0  0  0  0
    4.8448   -1.1776    2.2603 Cl  0  0  0  0  0  0  0  0  0  0  0  0
    3.1672   -1.3995    0.1591 C   0  0  0  0  0  0  0  0  0  0  0  0
    2.0611   -1.0142   -0.6024 C   0  0  0  0  0  0  0  0  0  0  0  0
  1  2  1  0
  2  3  1  0
  2  4  1  0
  4  5  1  0
  5  6  2  0
  6  7  1  0
  7  8  2  0
  8  9  1  0
  8 10  1  0
 10 11  2  0
  4 12  1  0
 12 13  2  0
 13 14  1  0
 14 15  2  0
 15 16  1  0
 15 17  1  0
 17 18  2  0
 11  5  1  0
 18 12  1  0
M  END
>  <target>  (1020) 
-7.2

$$$$

     RDKit          3D

  6  5  0  0  0  0  0  0  0  0999 V2000
    2.2647   -0.0086    0.1795 C   0  0  0  0  0  0  0  0  0  0  0  0
    0.9890    0.6226    0.2917 O   0  0  0  0  0  0  0  0  0  0  0  0
   -0.0549   -0.2331    0.1589 C   0  0  0  0  0  0  0  0  0  0  0  0
    0.0081   -1.4349   -0.0382 O   0  0  0  0  0  0  0  0  0  0  0  0
   -1.3032    0.5471    0.2953 C   0  0  0  0  0  0  0  0  0  0  0  0
   -2.4986   -0.0493    0.2060 C   0  0  0  0  0  0  0  0  0  0  0  0
  1  2  1  0
  2  3  1  0
  3  4  2  0
  3  5  1  0
  5  6  2  0
M  END
>  <target>  (1021) 
-0.22

$$$$

     RDKit          3D

 20 21  0  0  0  0  0  0  0  0999 V2000
   -5.3670   -0.3366   -0.3251 C   0  0  0  0  0  0  0  0  0  0  0  0
   -4.5816    0.8904   -0.2805 N   0  0  0  0  0  0  0  0  0  0  0  0
   -5.3219    2.0849    0.0918 C   0  0  0  0  0  0  0  0  0  0  0  0
   -3.2012    0.9118   -0.0474 C   0  0  0  0  0  0  0  0  0  0  0  0
   -2.6555    1.8662    0.5003 O   0  0  0  0  0  0  0  0  0  0  0  0
   -2.5406   -0.2008   -0.5204 N   0  0  0  0  0  0  0  0  0  0  0  0
   -1.1927   -0.5502   -0.3023 C   0  0  0  0  0  0  0  0  0  0  0  0
   -0.3936    0.0317    0.6851 C   0  0  0  0  0  0  0  0  0  0  0  0
    0.9341   -0.3756    0.8559 C   0  0  0  0  0  0  0  0  0  0  0  0
    1.4719   -1.3616    0.0285 C   0  0  0  0  0  0  0  0  0  0  0  0
    2.7597   -1.8250    0.1645 O   0  0  0  0  0  0  0  0  0  0  0  0
    3.7697   -0.8917    0.2342 C   0  0  0  0  0  0  0  0  0  0  0  0
    3.8314    0.2310   -0.5971 C   0  0  0  0  0  0  0  0  0  0  0  0
    4.9060    1.1170   -0.4896 C   0  0  0  0  0  0  0  0  0  0  0  0
    5.9205    0.8672    0.4339 C   0  0  0  0  0  0  0  0  0  0  0  0
    7.2423    1.9603    0.5660 Cl  0  0  0  0  0  0  0  0  0  0  0  0
    5.8746   -0.2649    1.2470 C   0  0  0  0  0  0  0  0  0  0  0  0
    4.7998   -1.1501    1.1411 C   0  0  0  0  0  0  0  0  0  0  0  0
    0.6738   -1.9741   -0.9346 C   0  0  0  0  0  0  0  0  0  0  0  0
   -0.6529   -1.5669   -1.1013 C   0  0  0  0  0  0  0  0  0  0  0  0
  1  2  1  0
  2  3  1  0
  2  4  1  0
  4  5  2  0
  4  6  1  0
  6  7  1  0
  7  8  2  0
  8  9  1  0
  9 10  2  0
 10 11  1  0
 11 12  1  0
 12 13  2  0
 13 14  1  0
 14 15  2  0
 15 16  1  0
 15 17  1  0
 17 18  2  0
 10 19  1  0
 19 20  2  0
 18 12  1  0
 20  7  1  0
M  END
>  <target>  (1022) 
-4.89

$$$$

     RDKit          3D

 14 15  0  0  0  0  0  0  0  0999 V2000
    0.2990   -0.3035   -0.5581 N   0  0  0  0  0  0  0  0  0  0  0  0
   -0.2972    0.2675    0.3820 N   0  0  0  0  0  0  0  0  0  0  0  0
   -1.6898    0.1194    0.2488 C   0  0  0  0  0  0  0  0  0  0  0  0
   -2.3069   -1.1386    0.2820 C   0  0  0  0  0  0  0  0  0  0  0  0
   -3.6949   -1.2532    0.1778 C   0  0  0  0  0  0  0  0  0  0  0  0
   -4.4795   -0.1082    0.0490 C   0  0  0  0  0  0  0  0  0  0  0  0
   -3.8785    1.1496    0.0278 C   0  0  0  0  0  0  0  0  0  0  0  0
   -2.4901    1.2609    0.1321 C   0  0  0  0  0  0  0  0  0  0  0  0
    1.6911   -0.1446   -0.4318 C   0  0  0  0  0  0  0  0  0  0  0  0
    2.4012    0.4944   -1.4537 C   0  0  0  0  0  0  0  0  0  0  0  0
    3.7878    0.6421   -1.3728 C   0  0  0  0  0  0  0  0  0  0  0  0
    4.4778    0.1417   -0.2695 C   0  0  0  0  0  0  0  0  0  0  0  0
    3.7841   -0.5087    0.7499 C   0  0  0  0  0  0  0  0  0  0  0  0
    2.3977   -0.6549    0.6658 C   0  0  0  0  0  0  0  0  0  0  0  0
  1  2  2  3
  2  3  1  0
  3  4  2  0
  4  5  1  0
  5  6  2  0
  6  7  1  0
  7  8  2  0
  1  9  1  0
  9 10  2  0
 10 11  1  0
 11 12  2  0
 12 13  1  0
 13 14  2  0
  8  3  1  0
 14  9  1  0
M  END
>  <target>  (1023) 
-4.45

$$$$

     RDKit          3D

 10 10  0  0  0  0  0  0  0  0999 V2000
   -2.5882    0.4372    1.2372 C   0  0  0  0  0  0  0  0  0  0  0  0
   -1.9838   -0.3469    0.0696 C   0  0  0  0  0  0  0  0  0  0  0  0
   -2.6053    0.0889   -1.2596 C   0  0  0  0  0  0  0  0  0  0  0  0
   -0.4705   -0.2302    0.0423 C   0  0  0  0  0  0  0  0  0  0  0  0
    0.1715    1.0046   -0.1285 C   0  0  0  0  0  0  0  0  0  0  0  0
    1.5665    1.0887   -0.1510 C   0  0  0  0  0  0  0  0  0  0  0  0
    2.3500   -0.0585    0.0073 C   0  0  0  0  0  0  0  0  0  0  0  0
    3.8459    0.0274   -0.0506 C   0  0  0  0  0  0  0  0  0  0  0  0
    1.7154   -1.2947    0.1630 C   0  0  0  0  0  0  0  0  0  0  0  0
    0.3204   -1.3788    0.1854 C   0  0  0  0  0  0  0  0  0  0  0  0
  1  2  1  0
  2  3  1  0
  2  4  1  0
  4  5  2  0
  5  6  1  0
  6  7  2  0
  7  8  1  0
  7  9  1  0
  9 10  2  0
 10  4  1  0
M  END
>  <target>  (1024) 
-3.77

$$$$

     RDKit          3D

  9  9  0  0  0  0  0  0  0  0999 V2000
    2.4334    0.4276    0.0996 O   0  0  0  0  0  0  0  0  0  0  0  0
    1.0777    0.2253    0.0426 C   0  0  0  0  0  0  0  0  0  0  0  0
    0.5478   -1.0689    0.0720 C   0  0  0  0  0  0  0  0  0  0  0  0
    1.5929   -2.4382    0.1808 Cl  0  0  0  0  0  0  0  0  0  0  0  0
   -0.8321   -1.2709    0.0138 C   0  0  0  0  0  0  0  0  0  0  0  0
   -1.6907   -0.1745   -0.0744 C   0  0  0  0  0  0  0  0  0  0  0  0
   -1.1673    1.1198   -0.1041 C   0  0  0  0  0  0  0  0  0  0  0  0
    0.2150    1.3206   -0.0457 C   0  0  0  0  0  0  0  0  0  0  0  0
    0.8133    2.9389   -0.0856 Cl  0  0  0  0  0  0  0  0  0  0  0  0
  1  2  1  0
  2  3  2  0
  3  4  1  0
  3  5  1  0
  5  6  2  0
  6  7  1  0
  7  8  2  0
  8  9  1  0
  8  2  1  0
M  END
>  <target>  (1025) 
-1.79

$$$$

     RDKit          3D

 23 24  0  0  0  0  0  0  0  0999 V2000
    3.3787   -2.0011   -2.5516 O   0  0  0  0  0  0  0  0  0  0  0  0
    3.3926   -2.2025   -1.1372 C   0  0  0  0  0  0  0  0  0  0  0  0
    2.8269   -0.9747   -0.4142 C   0  0  0  0  0  0  0  0  0  0  0  0
    1.4574   -0.8195   -0.8309 O   0  0  0  0  0  0  0  0  0  0  0  0
    0.7890    0.2311   -0.1201 C   0  0  0  0  0  0  0  0  0  0  0  0
   -0.5475    0.3134   -0.6139 O   0  0  0  0  0  0  0  0  0  0  0  0
   -1.4921   -0.5439    0.0551 C   0  0  0  0  0  0  0  0  0  0  0  0
   -1.1313   -2.0427   -0.1003 C   0  0  0  0  0  0  0  0  0  0  0  0
   -0.8338   -2.3767   -1.4580 O   0  0  0  0  0  0  0  0  0  0  0  0
   -1.5719   -0.2253    1.4544 O   0  0  0  0  0  0  0  0  0  0  0  0
   -2.9458    0.0635    1.7924 C   0  0  0  0  0  0  0  0  0  0  0  0
   -3.0574    1.5575    2.1151 C   0  0  0  0  0  0  0  0  0  0  0  0
   -4.3771    1.8899    2.5289 O   0  0  0  0  0  0  0  0  0  0  0  0
   -3.8167   -0.3758    0.6108 C   0  0  0  0  0  0  0  0  0  0  0  0
   -4.1848   -1.7525    0.7595 O   0  0  0  0  0  0  0  0  0  0  0  0
   -2.8743   -0.2223   -0.5671 C   0  0  0  0  0  0  0  0  0  0  0  0
   -2.9435    1.1353   -1.0402 O   0  0  0  0  0  0  0  0  0  0  0  0
    1.4768    1.5887   -0.3734 C   0  0  0  0  0  0  0  0  0  0  0  0
    0.8860    2.6291    0.4242 O   0  0  0  0  0  0  0  0  0  0  0  0
    2.9665    1.4960   -0.0265 C   0  0  0  0  0  0  0  0  0  0  0  0
    3.6081    2.7187   -0.4240 O   0  0  0  0  0  0  0  0  0  0  0  0
    3.6251    0.3062   -0.7262 C   0  0  0  0  0  0  0  0  0  0  0  0
    3.6536    0.6156   -2.1302 O   0  0  0  0  0  0  0  0  0  0  0  0
  1  2  1  0
  2  3  1  0
  3  4  1  0
  4  5  1  0
  5  6  1  0
  6  7  1  0
  7  8  1  0
  8  9  1  0
  7 10  1  0
 10 11  1  0
 11 12  1  0
 12 13  1  0
 11 14  1  0
 14 15  1  0
 14 16  1  0
 16 17  1  0
  5 18  1  0
 18 19  1  0
 18 20  1  0
 20 21  1  0
 20 22  1  0
 22 23  1  0
 16  7  1  0
 22  3  1  0
M  END
>  <target>  (1026) 
0.79

$$$$

     RDKit          3D

 12 12  0  0  0  0  0  0  0  0999 V2000
    1.9689   -1.7608   -0.9313 O   0  0  0  0  0  0  0  0  0  0  0  0
    1.0216   -1.0571   -0.1148 C   0  0  0  0  0  0  0  0  0  0  0  0
   -0.3698   -1.2146   -0.7334 C   0  0  0  0  0  0  0  0  0  0  0  0
   -0.7513   -2.5980   -0.7336 O   0  0  0  0  0  0  0  0  0  0  0  0
   -1.4152   -0.4188    0.0523 C   0  0  0  0  0  0  0  0  0  0  0  0
   -2.6905   -0.5095   -0.5994 O   0  0  0  0  0  0  0  0  0  0  0  0
   -1.0216    1.0571    0.1542 C   0  0  0  0  0  0  0  0  0  0  0  0
   -1.9689    1.7608    0.9707 O   0  0  0  0  0  0  0  0  0  0  0  0
    0.3698    1.2146    0.7728 C   0  0  0  0  0  0  0  0  0  0  0  0
    0.7513    2.5980    0.7729 O   0  0  0  0  0  0  0  0  0  0  0  0
    1.4152    0.4188   -0.0130 C   0  0  0  0  0  0  0  0  0  0  0  0
    2.6905    0.5095    0.6387 O   0  0  0  0  0  0  0  0  0  0  0  0
  1  2  1  0
  2  3  1  0
  3  4  1  0
  3  5  1  0
  5  6  1  0
  5  7  1  0
  7  8  1  0
  7  9  1  0
  9 10  1  0
  9 11  1  0
 11 12  1  0
 11  2  1  0
M  END
>  <target>  (1027) 
0.35

$$$$

     RDKit          3D

 18 19  0  0  0  0  0  0  0  0999 V2000
   -3.1495    0.6446    1.9907 C   0  0  0  0  0  0  0  0  0  0  0  0
   -2.3268    0.2775    0.8546 N   0  0  0  0  0  0  0  0  0  0  0  0
   -2.8956   -0.6260   -0.0664 C   0  0  0  0  0  0  0  0  0  0  0  0
   -4.0346   -1.0713    0.1024 O   0  0  0  0  0  0  0  0  0  0  0  0
   -2.1138   -0.9951   -1.1604 N   0  0  0  0  0  0  0  0  0  0  0  0
   -2.6285   -1.9116   -2.1619 C   0  0  0  0  0  0  0  0  0  0  0  0
   -0.8393   -0.4949   -1.2768 C   0  0  0  0  0  0  0  0  0  0  0  0
    0.0363   -0.7678   -2.2813 N   0  0  0  0  0  0  0  0  0  0  0  0
    1.1170   -0.0813   -1.9699 C   0  0  0  0  0  0  0  0  0  0  0  0
    0.9528    0.6248   -0.8035 N   0  0  0  0  0  0  0  0  0  0  0  0
    1.9284    1.5372   -0.2384 C   0  0  0  0  0  0  0  0  0  0  0  0
    3.0283    0.8642    0.5841 C   0  0  0  0  0  0  0  0  0  0  0  0
    3.8540    0.0561   -0.2677 O   0  0  0  0  0  0  0  0  0  0  0  0
    2.5187    0.0073    1.7452 C   0  0  0  0  0  0  0  0  0  0  0  0
    3.6573   -0.5443    2.4153 O   0  0  0  0  0  0  0  0  0  0  0  0
   -0.3069    0.3480   -0.3473 C   0  0  0  0  0  0  0  0  0  0  0  0
   -1.0169    0.7622    0.8129 C   0  0  0  0  0  0  0  0  0  0  0  0
   -0.5065    1.4498    1.6927 O   0  0  0  0  0  0  0  0  0  0  0  0
  1  2  1  0
  2  3  1  0
  3  4  2  0
  3  5  1  0
  5  6  1  0
  5  7  1  0
  7  8  1  0
  8  9  2  0
  9 10  1  0
 10 11  1  0
 11 12  1  0
 12 13  1  0
 12 14  1  0
 14 15  1  0
 10 16  1  0
 16 17  1  0
 17 18  2  0
 16  7  2  0
 17  2  1  0
M  END
>  <target>  (1028) 
-0.17

$$$$

     RDKit          3D

 20 20  0  0  0  0  0  0  0  0999 V2000
   -1.6935   -2.7263    0.4377 O   0  0  0  0  0  0  0  0  0  0  0  0
   -1.0952   -1.7450   -0.4173 C   0  0  0  0  0  0  0  0  0  0  0  0
   -1.0722   -0.3916    0.3152 C   0  0  0  0  0  0  0  0  0  0  0  0
   -2.4450   -0.0076    0.7197 N   0  0  0  0  0  0  0  0  0  0  0  0
   -3.4304    0.3968   -0.1630 C   0  0  0  0  0  0  0  0  0  0  0  0
   -3.1705    0.6870   -1.3324 O   0  0  0  0  0  0  0  0  0  0  0  0
   -4.8492    0.5252    0.4067 C   0  0  0  0  0  0  0  0  0  0  0  0
   -4.9201    1.9698    1.4345 Cl  0  0  0  0  0  0  0  0  0  0  0  0
   -5.2632   -0.9302    1.3383 Cl  0  0  0  0  0  0  0  0  0  0  0  0
   -0.3114    0.7115   -0.4802 C   0  0  0  0  0  0  0  0  0  0  0  0
   -0.6287    0.6777   -1.8728 O   0  0  0  0  0  0  0  0  0  0  0  0
    1.2000    0.6029   -0.3113 C   0  0  0  0  0  0  0  0  0  0  0  0
    1.8073    1.0992    0.8560 C   0  0  0  0  0  0  0  0  0  0  0  0
    3.1919    1.0120    1.0387 C   0  0  0  0  0  0  0  0  0  0  0  0
    3.9854    0.4226    0.0468 C   0  0  0  0  0  0  0  0  0  0  0  0
    3.4001   -0.0802   -1.1203 C   0  0  0  0  0  0  0  0  0  0  0  0
    2.0150    0.0119   -1.2925 C   0  0  0  0  0  0  0  0  0  0  0  0
    5.4413    0.3338    0.2312 N   0  0  0  0  0  0  0  0  0  0  0  0
    6.1044   -0.2149   -0.6607 O   0  0  0  0  0  0  0  0  0  0  0  0
    5.9202    0.8088    1.2712 O   0  0  0  0  0  0  0  0  0  0  0  0
  1  2  1  0
  2  3  1  0
  3  4  1  0
  4  5  1  0
  5  6  2  0
  5  7  1  0
  7  8  1  0
  7  9  1  0
  3 10  1  0
 10 11  1  0
 10 12  1  0
 12 13  2  0
 13 14  1  0
 14 15  2  0
 15 16  1  0
 16 17  2  0
 15 18  1  0
 18 19  1  0
 18 20  2  0
 17 12  1  0
M  CHG  2  18   1  19  -1
M  END
>  <target>  (1029) 
-2.1109999999999998

$$$$

     RDKit          3D

  8  7  0  0  0  0  0  0  0  0999 V2000
    2.2110   -1.0608    0.1472 C   0  0  0  0  0  0  0  0  0  0  0  0
    1.1513   -0.0753    0.6315 C   0  0  0  0  0  0  0  0  0  0  0  0
    0.0192    0.2051   -0.3828 C   0  0  0  0  0  0  0  0  0  0  0  0
    0.6221    0.8314   -1.5257 O   0  0  0  0  0  0  0  0  0  0  0  0
   -0.6758   -1.0795   -0.8967 C   0  0  0  0  0  0  0  0  0  0  0  0
   -1.3237   -1.9490    0.1713 C   0  0  0  0  0  0  0  0  0  0  0  0
   -1.0270    1.1855    0.2048 C   0  0  0  0  0  0  0  0  0  0  0  0
   -0.4871    2.5694    0.5529 C   0  0  0  0  0  0  0  0  0  0  0  0
  1  2  1  0
  2  3  1  0
  3  4  1  0
  3  5  1  0
  5  6  1  0
  3  7  1  0
  7  8  1  0
M  END
>  <target>  (1030) 
-0.85

$$$$

     RDKit          3D

 21 25  0  0  0  0  0  0  0  0999 V2000
   -2.9325    1.3701   -1.4744 C   0  0  0  0  0  0  0  0  0  0  0  0
   -2.6918    0.6255   -0.1508 C   0  0  0  0  0  0  0  0  0  0  0  0
   -1.8795    1.5172    0.8160 C   0  0  0  0  0  0  0  0  0  0  0  0
   -0.4080    1.6452    0.4194 C   0  0  0  0  0  0  0  0  0  0  0  0
    0.2807    0.2697    0.3058 C   0  0  0  0  0  0  0  0  0  0  0  0
   -0.4912   -0.6335   -0.6936 C   0  0  0  0  0  0  0  0  0  0  0  0
    0.1471   -2.0255   -0.8058 C   0  0  0  0  0  0  0  0  0  0  0  0
    1.6352   -1.9565   -1.1276 C   0  0  0  0  0  0  0  0  0  0  0  0
    2.3838   -1.1015   -0.0978 C   0  0  0  0  0  0  0  0  0  0  0  0
    3.8984   -1.1549   -0.3582 C   0  0  0  0  0  0  0  0  0  0  0  0
    4.6555   -0.3824    0.6758 C   0  0  0  0  0  0  0  0  0  0  0  0
    5.2101    1.2089    0.2761 S   0  0  0  0  0  0  0  0  0  0  0  0
    3.9905    0.7516    1.4000 C   0  0  0  0  0  0  0  0  0  0  0  0
    2.5521    1.1069    1.1509 C   0  0  0  0  0  0  0  0  0  0  0  0
    1.8294    0.3577   -0.0156 C   0  0  0  0  0  0  0  0  0  0  0  0
    2.0568    1.1387   -1.3362 C   0  0  0  0  0  0  0  0  0  0  0  0
   -2.0004   -0.7365   -0.3762 C   0  0  0  0  0  0  0  0  0  0  0  0
   -2.3639   -1.5501    0.8800 C   0  0  0  0  0  0  0  0  0  0  0  0
   -3.6827   -0.9737    1.3977 C   0  0  0  0  0  0  0  0  0  0  0  0
   -4.0379    0.1768    0.4586 C   0  0  0  0  0  0  0  0  0  0  0  0
   -4.7091    1.2053    1.1627 O   0  0  0  0  0  0  0  0  0  0  0  0
  1  2  1  0
  2  3  1  0
  3  4  1  0
  4  5  1  0
  5  6  1  0
  6  7  1  0
  7  8  1  0
  8  9  1  0
  9 10  1  0
 10 11  1  0
 11 12  1  0
 12 13  1  0
 13 14  1  0
 14 15  1  0
 15 16  1  0
  6 17  1  0
 17 18  1  0
 18 19  1  0
 19 20  1  0
 20 21  1  0
 13 11  1  0
 15  5  1  0
 15  9  1  0
 17  2  1  0
 20  2  1  0
M  END
>  <target>  (1031) 
-5.41

$$$$

     RDKit          3D

  8  8  0  0  0  0  0  0  0  0999 V2000
    3.2088   -0.0710   -0.0047 Br  0  0  0  0  0  0  0  0  0  0  0  0
    1.3102   -0.0175   -0.0023 C   0  0  0  0  0  0  0  0  0  0  0  0
    0.6368   -1.2437    0.0449 C   0  0  0  0  0  0  0  0  0  0  0  0
   -0.7585   -1.2811    0.0494 C   0  0  0  0  0  0  0  0  0  0  0  0
   -1.4867   -0.0944    0.0069 C   0  0  0  0  0  0  0  0  0  0  0  0
   -0.8204    1.1312   -0.0403 C   0  0  0  0  0  0  0  0  0  0  0  0
    0.5787    1.1747   -0.0451 C   0  0  0  0  0  0  0  0  0  0  0  0
    1.3922    2.8898   -0.1108 Br  0  0  0  0  0  0  0  0  0  0  0  0
  1  2  1  0
  2  3  2  0
  3  4  1  0
  4  5  2  0
  5  6  1  0
  6  7  2  0
  7  8  1  0
  7  2  1  0
M  END
>  <target>  (1032) 
-3.5

$$$$

     RDKit          3D

 10 10  0  0  0  0  0  0  0  0999 V2000
    2.5066    0.2014   -0.0920 O   0  0  0  0  0  0  0  0  0  0  0  0
    1.1386    0.1252   -0.0412 C   0  0  0  0  0  0  0  0  0  0  0  0
    0.3804    1.2983    0.0094 C   0  0  0  0  0  0  0  0  0  0  0  0
    1.1281    2.8536    0.0095 Cl  0  0  0  0  0  0  0  0  0  0  0  0
   -1.0129    1.2309    0.0614 C   0  0  0  0  0  0  0  0  0  0  0  0
   -1.6428   -0.0128    0.0625 C   0  0  0  0  0  0  0  0  0  0  0  0
   -3.3602   -0.0964    0.1266 Cl  0  0  0  0  0  0  0  0  0  0  0  0
   -0.8983   -1.1897    0.0124 C   0  0  0  0  0  0  0  0  0  0  0  0
    0.4925   -1.1155   -0.0394 C   0  0  0  0  0  0  0  0  0  0  0  0
    1.4096   -2.5760   -0.1014 Cl  0  0  0  0  0  0  0  0  0  0  0  0
  1  2  1  0
  2  3  2  0
  3  4  1  0
  3  5  1  0
  5  6  2  0
  6  7  1  0
  6  8  1  0
  8  9  2  0
  9 10  1  0
  9  2  1  0
M  END
>  <target>  (1033) 
-2.34

$$$$

     RDKit          3D

 23 23  0  0  0  0  0  0  0  0999 V2000
   -2.9165    2.6880   -1.1167 C   0  0  0  0  0  0  0  0  0  0  0  0
   -1.8407    1.6133   -1.0944 C   0  0  0  0  0  0  0  0  0  0  0  0
   -2.0716    0.6169    0.0441 C   0  0  0  0  0  0  0  0  0  0  0  0
   -1.0780   -0.4810    0.0256 N   0  0  0  0  0  0  0  0  0  0  0  0
   -1.4663   -1.6922    0.7857 C   0  0  0  0  0  0  0  0  0  0  0  0
   -2.3662   -2.5867   -0.0710 C   0  0  0  0  0  0  0  0  0  0  0  0
   -2.7334   -3.8676    0.6614 C   0  0  0  0  0  0  0  0  0  0  0  0
    0.2776   -0.1383    0.1673 C   0  0  0  0  0  0  0  0  0  0  0  0
    1.1825   -0.4409   -0.8755 C   0  0  0  0  0  0  0  0  0  0  0  0
    2.5471   -0.1092   -0.8542 C   0  0  0  0  0  0  0  0  0  0  0  0
    3.0537    0.5584    0.2569 C   0  0  0  0  0  0  0  0  0  0  0  0
    2.2248    0.8581    1.3371 C   0  0  0  0  0  0  0  0  0  0  0  0
    0.8627    0.5054    1.2772 C   0  0  0  0  0  0  0  0  0  0  0  0
    0.0856    0.8272    2.4546 N   0  0  0  0  0  0  0  0  0  0  0  0
   -0.2201   -0.1077    3.2051 O   0  0  0  0  0  0  0  0  0  0  0  0
   -0.1724    2.0239    2.6401 O   0  0  0  0  0  0  0  0  0  0  0  0
    4.7730    0.9714    0.3271 S   0  0  0  0  0  0  0  0  0  0  0  0
    4.7735    2.5076   -0.3405 N   0  0  0  0  0  0  0  0  0  0  0  0
    5.1522    1.1250    1.7103 O   0  0  0  0  0  0  0  0  0  0  0  0
    5.4894    0.1235   -0.5938 O   0  0  0  0  0  0  0  0  0  0  0  0
    0.7084   -1.1280   -2.0594 N   0  0  0  0  0  0  0  0  0  0  0  0
    0.6867   -2.3654   -2.0169 O   0  0  0  0  0  0  0  0  0  0  0  0
    0.4431   -0.4254   -3.0442 O   0  0  0  0  0  0  0  0  0  0  0  0
  1  2  1  0
  2  3  1  0
  3  4  1  0
  4  5  1  0
  5  6  1  0
  6  7  1  0
  4  8  1  0
  8  9  2  0
  9 10  1  0
 10 11  2  0
 11 12  1  0
 12 13  2  0
 13 14  1  0
 14 15  1  0
 14 16  2  0
 11 17  1  0
 17 18  1  0
 17 19  2  0
 17 20  2  0
  9 21  1  0
 21 22  1  0
 21 23  2  0
 13  8  1  0
M  CHG  4  14   1  15  -1  21   1  22  -1
M  END
>  <target>  (1034) 
-5.16

$$$$

     RDKit          3D

 19 21  0  0  0  0  0  0  0  0999 V2000
    0.7944    1.3137   -1.4264 C   0  0  0  0  0  0  0  0  0  0  0  0
   -0.4687    1.4758   -0.6275 C   0  0  0  0  0  0  0  0  0  0  0  0
   -0.8941    2.7800   -0.3023 C   0  0  0  0  0  0  0  0  0  0  0  0
   -2.0777    2.9931    0.3965 C   0  0  0  0  0  0  0  0  0  0  0  0
   -2.8503    1.9058    0.7759 C   0  0  0  0  0  0  0  0  0  0  0  0
   -2.4347    0.6090    0.4599 C   0  0  0  0  0  0  0  0  0  0  0  0
   -1.2351    0.3630   -0.2323 C   0  0  0  0  0  0  0  0  0  0  0  0
   -0.8555   -0.9826   -0.5534 N   0  0  0  0  0  0  0  0  0  0  0  0
   -1.9199   -1.9664   -0.8267 C   0  0  0  0  0  0  0  0  0  0  0  0
   -2.1174   -2.9909    0.2895 C   0  0  0  0  0  0  0  0  0  0  0  0
   -2.7822   -2.4179    1.3309 F   0  0  0  0  0  0  0  0  0  0  0  0
    0.4552   -1.4918   -0.6363 C   0  0  0  0  0  0  0  0  0  0  0  0
    0.6750   -2.6557   -0.9878 O   0  0  0  0  0  0  0  0  0  0  0  0
    1.6396   -0.7039   -0.2119 C   0  0  0  0  0  0  0  0  0  0  0  0
    2.6216   -1.3596    0.5467 C   0  0  0  0  0  0  0  0  0  0  0  0
    3.7784   -0.6864    0.9394 C   0  0  0  0  0  0  0  0  0  0  0  0
    3.9668    0.6417    0.5661 C   0  0  0  0  0  0  0  0  0  0  0  0
    3.0032    1.2944   -0.2039 C   0  0  0  0  0  0  0  0  0  0  0  0
    1.8376    0.6228   -0.6057 C   0  0  0  0  0  0  0  0  0  0  0  0
  1  2  1  0
  2  3  2  0
  3  4  1  0
  4  5  2  0
  5  6  1  0
  6  7  2  0
  7  8  1  0
  8  9  1  0
  9 10  1  0
 10 11  1  0
  8 12  1  0
 12 13  2  0
 12 14  1  0
 14 15  2  0
 15 16  1  0
 16 17  2  0
 17 18  1  0
 18 19  2  0
  7  2  1  0
 19  1  1  0
 19 14  1  0
M  END
>  <target>  (1035) 
-4.7989999999999995

$$$$

     RDKit          3D

  8  7  0  0  0  0  0  0  0  0999 V2000
   -2.0325   -0.9936    0.4585 C   0  0  0  0  0  0  0  0  0  0  0  0
   -1.2756    0.1331   -0.2346 C   0  0  0  0  0  0  0  0  0  0  0  0
   -2.1172    1.4045   -0.2943 C   0  0  0  0  0  0  0  0  0  0  0  0
    0.0414    0.3847    0.4972 C   0  0  0  0  0  0  0  0  0  0  0  0
    0.1316    1.2227    1.3955 O   0  0  0  0  0  0  0  0  0  0  0  0
    1.2411   -0.4538    0.0602 C   0  0  0  0  0  0  0  0  0  0  0  0
    2.1939   -0.6915    1.2281 C   0  0  0  0  0  0  0  0  0  0  0  0
    1.9516    0.2423   -1.0943 C   0  0  0  0  0  0  0  0  0  0  0  0
  1  2  1  0
  2  3  1  0
  2  4  1  0
  4  5  2  0
  4  6  1  0
  6  7  1  0
  6  8  1  0
M  END
>  <target>  (1036) 
-1.3

$$$$

     RDKit          3D

 17 17  0  0  0  0  0  0  0  0999 V2000
   -2.8907   -0.6667    1.4443 O   0  0  0  0  0  0  0  0  0  0  0  0
   -1.9548   -1.0446    0.7451 C   0  0  0  0  0  0  0  0  0  0  0  0
   -1.7486   -2.3874    0.5716 N   0  0  0  0  0  0  0  0  0  0  0  0
   -1.1043   -2.9305   -0.4953 C   0  0  0  0  0  0  0  0  0  0  0  0
   -1.3116   -4.0869   -0.8470 O   0  0  0  0  0  0  0  0  0  0  0  0
   -0.2918   -2.1071   -1.2065 N   0  0  0  0  0  0  0  0  0  0  0  0
   -0.4512   -0.7490   -1.2199 C   0  0  0  0  0  0  0  0  0  0  0  0
   -0.1977   -0.1189   -2.2440 O   0  0  0  0  0  0  0  0  0  0  0  0
   -0.9274   -0.1177    0.0935 C   0  0  0  0  0  0  0  0  0  0  0  0
   -1.5051    1.3168   -0.1850 C   0  0  0  0  0  0  0  0  0  0  0  0
   -2.7935    1.2882   -1.0277 C   0  0  0  0  0  0  0  0  0  0  0  0
   -1.7517    2.1786    1.0627 C   0  0  0  0  0  0  0  0  0  0  0  0
    0.2953   -0.1097    1.0646 C   0  0  0  0  0  0  0  0  0  0  0  0
    1.4738    0.7161    0.6113 C   0  0  0  0  0  0  0  0  0  0  0  0
    2.6787    0.2827    0.1908 C   0  0  0  0  0  0  0  0  0  0  0  0
    3.7430    1.2710   -0.2164 C   0  0  0  0  0  0  0  0  0  0  0  0
    3.1033   -1.1543    0.0632 C   0  0  0  0  0  0  0  0  0  0  0  0
  1  2  2  0
  2  3  1  0
  3  4  1  0
  4  5  2  0
  4  6  1  0
  6  7  1  0
  7  8  2  0
  7  9  1  0
  9 10  1  0
 10 11  1  0
 10 12  1  0
  9 13  1  0
 13 14  1  0
 14 15  2  3
 15 16  1  0
 15 17  1  0
  9  2  1  0
M  END
>  <target>  (1037) 
-2.593

$$$$

     RDKit          3D

 19 21  0  0  0  0  0  0  0  0999 V2000
    2.2638   -2.0202    0.3194 C   0  0  0  0  0  0  0  0  0  0  0  0
    0.9533   -2.2585    0.4569 C   0  0  0  0  0  0  0  0  0  0  0  0
    0.5180   -3.5678    0.5956 O   0  0  0  0  0  0  0  0  0  0  0  0
   -0.0679   -1.1368    0.5241 C   0  0  0  0  0  0  0  0  0  0  0  0
   -1.3365   -1.4724   -0.2513 C   0  0  0  0  0  0  0  0  0  0  0  0
   -1.7542   -2.6387   -0.3103 O   0  0  0  0  0  0  0  0  0  0  0  0
   -2.1940   -0.3361   -0.7730 C   0  0  0  0  0  0  0  0  0  0  0  0
   -3.1195    0.0938    0.3457 C   0  0  0  0  0  0  0  0  0  0  0  0
   -3.2491    1.3771    0.7052 C   0  0  0  0  0  0  0  0  0  0  0  0
   -4.0829    1.8019    1.7031 O   0  0  0  0  0  0  0  0  0  0  0  0
   -2.5291    2.4311    0.0427 C   0  0  0  0  0  0  0  0  0  0  0  0
   -1.6430    2.1741   -0.9305 C   0  0  0  0  0  0  0  0  0  0  0  0
   -1.3282    0.7774   -1.3990 C   0  0  0  0  0  0  0  0  0  0  0  0
    0.0737    0.5580   -1.2514 O   0  0  0  0  0  0  0  0  0  0  0  0
    0.4770    0.2364    0.0813 C   0  0  0  0  0  0  0  0  0  0  0  0
    1.9760    0.3665    0.0830 C   0  0  0  0  0  0  0  0  0  0  0  0
    2.8028   -0.6860    0.2052 C   0  0  0  0  0  0  0  0  0  0  0  0
    4.1747   -0.6692    0.2041 O   0  0  0  0  0  0  0  0  0  0  0  0
    4.8224    0.5858    0.0398 C   0  0  0  0  0  0  0  0  0  0  0  0
  1  2  2  0
  2  3  1  0
  2  4  1  0
  4  5  1  0
  5  6  2  0
  5  7  1  0
  7  8  1  0
  8  9  2  0
  9 10  1  0
  9 11  1  0
 11 12  2  0
 12 13  1  0
 13 14  1  0
 14 15  1  0
 15 16  1  0
 16 17  2  0
 17 18  1  0
 18 19  1  0
 17  1  1  0
 15  4  1  0
 13  7  1  0
M  END
>  <target>  (1038) 
-2.943

$$$$

     RDKit          3D

 14 15  0  0  0  0  0  0  0  0999 V2000
    3.2449   -0.3865   -0.6544 C   0  0  0  0  0  0  0  0  0  0  0  0
    1.9541   -0.8845   -0.2522 N   0  0  0  0  0  0  0  0  0  0  0  0
    1.6577   -2.1758    0.0964 C   0  0  0  0  0  0  0  0  0  0  0  0
    0.3860   -2.3135    0.4158 N   0  0  0  0  0  0  0  0  0  0  0  0
   -0.1386   -1.0656    0.2636 C   0  0  0  0  0  0  0  0  0  0  0  0
   -1.4455   -0.7027    0.4820 N   0  0  0  0  0  0  0  0  0  0  0  0
   -2.4123   -1.6937    0.9178 C   0  0  0  0  0  0  0  0  0  0  0  0
   -1.8285    0.6238    0.2804 C   0  0  0  0  0  0  0  0  0  0  0  0
   -2.9895    1.0028    0.4621 O   0  0  0  0  0  0  0  0  0  0  0  0
   -0.8298    1.5258   -0.1433 N   0  0  0  0  0  0  0  0  0  0  0  0
   -1.2509    2.8982   -0.3463 C   0  0  0  0  0  0  0  0  0  0  0  0
    0.5106    1.2062   -0.3788 C   0  0  0  0  0  0  0  0  0  0  0  0
    1.3625    2.0092   -0.7476 O   0  0  0  0  0  0  0  0  0  0  0  0
    0.7981   -0.1658   -0.1455 C   0  0  0  0  0  0  0  0  0  0  0  0
  1  2  1  0
  2  3  1  0
  3  4  2  0
  4  5  1  0
  5  6  1  0
  6  7  1  0
  6  8  1  0
  8  9  2  0
  8 10  1  0
 10 11  1  0
 10 12  1  0
 12 13  2  0
 12 14  1  0
 14  2  1  0
 14  5  2  0
M  END
>  <target>  (1039) 
-0.8759999999999999

$$$$

     RDKit          3D

 29 33  0  0  0  0  0  0  0  0999 V2000
   -2.0594    5.0838   -1.3594 C   0  0  0  0  0  0  0  0  0  0  0  0
   -1.7250    4.1150   -0.2618 C   0  0  0  0  0  0  0  0  0  0  0  0
   -1.8132    4.3886    0.9281 O   0  0  0  0  0  0  0  0  0  0  0  0
   -1.1880    2.5394   -0.8362 S   0  0  0  0  0  0  0  0  0  0  0  0
   -1.0794    1.6180    0.7566 C   0  0  0  0  0  0  0  0  0  0  0  0
   -2.5023    1.2680    1.2245 C   0  0  0  0  0  0  0  0  0  0  0  0
   -3.1653    0.2427    0.3275 C   0  0  0  0  0  0  0  0  0  0  0  0
   -4.3748    0.5024   -0.2015 C   0  0  0  0  0  0  0  0  0  0  0  0
   -5.1097   -0.5036   -1.0017 C   0  0  0  0  0  0  0  0  0  0  0  0
   -6.1995   -0.2107   -1.4872 O   0  0  0  0  0  0  0  0  0  0  0  0
   -4.5205   -1.8842   -1.1183 C   0  0  0  0  0  0  0  0  0  0  0  0
   -2.9994   -1.8181   -1.1242 C   0  0  0  0  0  0  0  0  0  0  0  0
   -2.3975   -1.0633    0.0994 C   0  0  0  0  0  0  0  0  0  0  0  0
   -2.5925   -1.9298    1.3674 C   0  0  0  0  0  0  0  0  0  0  0  0
   -0.8632   -0.7835   -0.2064 C   0  0  0  0  0  0  0  0  0  0  0  0
   -0.0167   -2.0779   -0.1704 C   0  0  0  0  0  0  0  0  0  0  0  0
    1.4700   -1.8419   -0.4274 C   0  0  0  0  0  0  0  0  0  0  0  0
    2.1020   -0.8047    0.5319 C   0  0  0  0  0  0  0  0  0  0  0  0
    2.1849   -1.3781    1.9609 C   0  0  0  0  0  0  0  0  0  0  0  0
    1.2850    0.5149    0.5009 C   0  0  0  0  0  0  0  0  0  0  0  0
    1.7392    1.1733   -0.8122 C   0  0  0  0  0  0  0  0  0  0  0  0
    3.1610    0.6742   -1.0985 C   0  0  0  0  0  0  0  0  0  0  0  0
    3.4904   -0.3248    0.0220 C   0  0  0  0  0  0  0  0  0  0  0  0
    4.4747   -1.4043   -0.3910 C   0  0  0  0  0  0  0  0  0  0  0  0
    5.8121   -0.7201   -0.2294 C   0  0  0  0  0  0  0  0  0  0  0  0
    5.5397    0.2240    0.9011 C   0  0  0  0  0  0  0  0  0  0  0  0
    6.3857    0.7863    1.5757 O   0  0  0  0  0  0  0  0  0  0  0  0
    4.1926    0.3955    1.0529 O   0  0  0  0  0  0  0  0  0  0  0  0
   -0.2405    0.3044    0.7142 C   0  0  0  0  0  0  0  0  0  0  0  0
  1  2  1  0
  2  3  2  0
  2  4  1  0
  4  5  1  0
  5  6  1  0
  6  7  1  0
  7  8  2  0
  8  9  1  0
  9 10  2  0
  9 11  1  0
 11 12  1  0
 12 13  1  0
 13 14  1  0
 13 15  1  0
 15 16  1  0
 16 17  1  0
 17 18  1  0
 18 19  1  0
 18 20  1  0
 20 21  1  0
 21 22  1  0
 22 23  1  0
 23 24  1  0
 24 25  1  0
 25 26  1  0
 26 27  2  0
 26 28  1  0
 20 29  1  0
 13  7  1  0
 23 18  1  0
 28 23  1  0
 29  5  1  0
 29 15  1  0
M  END
>  <target>  (1040) 
-4.173

$$$$

     RDKit          3D

  9  9  0  0  0  0  0  0  0  0999 V2000
   -1.7256    1.5650   -0.0222 C   0  0  0  0  0  0  0  0  0  0  0  0
   -0.4541    0.7611   -0.0286 C   0  0  0  0  0  0  0  0  0  0  0  0
    0.7796    1.4259   -0.1291 C   0  0  0  0  0  0  0  0  0  0  0  0
    1.9792    0.7127   -0.1381 C   0  0  0  0  0  0  0  0  0  0  0  0
    1.9476   -0.6721   -0.0463 C   0  0  0  0  0  0  0  0  0  0  0  0
    3.0938   -1.4111   -0.0511 O   0  0  0  0  0  0  0  0  0  0  0  0
    0.7389   -1.3515    0.0540 C   0  0  0  0  0  0  0  0  0  0  0  0
   -0.4746   -0.6461    0.0641 C   0  0  0  0  0  0  0  0  0  0  0  0
   -1.7664   -1.4081    0.1736 C   0  0  0  0  0  0  0  0  0  0  0  0
  1  2  1  0
  2  3  2  0
  3  4  1  0
  4  5  2  0
  5  6  1  0
  5  7  1  0
  7  8  2  0
  8  9  1  0
  8  2  1  0
M  END
>  <target>  (1041) 
-1.38

$$$$

     RDKit          3D

 13 14  0  0  0  0  0  0  0  0999 V2000
    0.0358    0.1994   -1.3905 O   0  0  0  0  0  0  0  0  0  0  0  0
    1.1891   -0.0015   -0.6664 C   0  0  0  0  0  0  0  0  0  0  0  0
    1.4706    0.6922    0.5135 C   0  0  0  0  0  0  0  0  0  0  0  0
    2.6769    0.4673    1.1783 C   0  0  0  0  0  0  0  0  0  0  0  0
    3.6043   -0.4357    0.6566 C   0  0  0  0  0  0  0  0  0  0  0  0
    3.3310   -1.1099   -0.5341 C   0  0  0  0  0  0  0  0  0  0  0  0
    2.1257   -0.8869   -1.2005 C   0  0  0  0  0  0  0  0  0  0  0  0
   -1.1540    0.1971   -0.6982 C   0  0  0  0  0  0  0  0  0  0  0  0
   -2.0689    1.2037   -1.0086 C   0  0  0  0  0  0  0  0  0  0  0  0
   -3.3078    1.2392   -0.3680 C   0  0  0  0  0  0  0  0  0  0  0  0
   -3.6358    0.2598    0.5701 C   0  0  0  0  0  0  0  0  0  0  0  0
   -2.7294   -0.7600    0.8632 C   0  0  0  0  0  0  0  0  0  0  0  0
   -1.4895   -0.7979    0.2237 C   0  0  0  0  0  0  0  0  0  0  0  0
  1  2  1  0
  2  3  2  0
  3  4  1  0
  4  5  2  0
  5  6  1  0
  6  7  2  0
  1  8  1  0
  8  9  2  0
  9 10  1  0
 10 11  2  0
 11 12  1  0
 12 13  2  0
  7  2  1  0
 13  8  1  0
M  END
>  <target>  (1042) 
-3.96

$$$$

     RDKit          3D

 18 19  0  0  0  0  0  0  0  0999 V2000
    5.2506   -0.5294   -0.3042 Cl  0  0  0  0  0  0  0  0  0  0  0  0
    3.5382   -0.3340   -0.1920 C   0  0  0  0  0  0  0  0  0  0  0  0
    2.7555   -0.8666   -1.2181 C   0  0  0  0  0  0  0  0  0  0  0  0
    1.3641   -0.7385   -1.1775 C   0  0  0  0  0  0  0  0  0  0  0  0
    0.4571   -1.4294   -2.4786 Cl  0  0  0  0  0  0  0  0  0  0  0  0
    0.7301   -0.0742   -0.1103 C   0  0  0  0  0  0  0  0  0  0  0  0
    1.5348    0.4532    0.9163 C   0  0  0  0  0  0  0  0  0  0  0  0
    2.9281    0.3269    0.8780 C   0  0  0  0  0  0  0  0  0  0  0  0
    3.8308    1.0077    2.1837 Cl  0  0  0  0  0  0  0  0  0  0  0  0
   -0.7314    0.0883   -0.0332 C   0  0  0  0  0  0  0  0  0  0  0  0
   -1.4955   -0.8814    0.6417 C   0  0  0  0  0  0  0  0  0  0  0  0
   -2.8875   -0.7686    0.7320 C   0  0  0  0  0  0  0  0  0  0  0  0
   -3.7388   -2.0093    1.5801 Cl  0  0  0  0  0  0  0  0  0  0  0  0
   -3.5372    0.3223    0.1475 C   0  0  0  0  0  0  0  0  0  0  0  0
   -5.2504    0.5278    0.2212 Cl  0  0  0  0  0  0  0  0  0  0  0  0
   -2.7949    1.2961   -0.5234 C   0  0  0  0  0  0  0  0  0  0  0  0
   -1.4047    1.1806   -0.6125 C   0  0  0  0  0  0  0  0  0  0  0  0
   -0.5488    2.4279   -1.4519 Cl  0  0  0  0  0  0  0  0  0  0  0  0
  1  2  1  0
  2  3  2  0
  3  4  1  0
  4  5  1  0
  4  6  2  0
  6  7  1  0
  7  8  2  0
  8  9  1  0
  6 10  1  0
 10 11  2  0
 11 12  1  0
 12 13  1  0
 12 14  2  0
 14 15  1  0
 14 16  1  0
 16 17  2  0
 17 18  1  0
  8  2  1  0
 17 10  1  0
M  END
>  <target>  (1043) 
-8.56

$$$$

     RDKit          3D

  9  9  0  0  0  0  0  0  0  0999 V2000
    2.5757    0.4082    0.1401 N   0  0  0  0  0  0  0  0  0  0  0  0
    1.6846   -0.6010    0.3825 C   0  0  0  0  0  0  0  0  0  0  0  0
    2.0730   -1.6969    0.7655 O   0  0  0  0  0  0  0  0  0  0  0  0
    0.2510   -0.3317    0.1337 C   0  0  0  0  0  0  0  0  0  0  0  0
   -0.2898    0.9532    0.0445 C   0  0  0  0  0  0  0  0  0  0  0  0
   -1.6563    1.1048   -0.1900 C   0  0  0  0  0  0  0  0  0  0  0  0
   -2.4351   -0.0345   -0.3229 C   0  0  0  0  0  0  0  0  0  0  0  0
   -1.9466   -1.2897   -0.2327 N   0  0  0  0  0  0  0  0  0  0  0  0
   -0.6150   -1.4108    0.0015 C   0  0  0  0  0  0  0  0  0  0  0  0
  1  2  1  0
  2  3  2  0
  2  4  1  0
  4  5  2  0
  5  6  1  0
  6  7  2  0
  7  8  1  0
  8  9  2  0
  9  4  1  0
M  END
>  <target>  (1044) 
0.61

$$$$

     RDKit          3D

  7  7  0  0  0  0  0  0  0  0999 V2000
    2.7884    0.5850   -0.3780 S   0  0  0  0  0  0  0  0  0  0  0  0
    1.0501    0.2629   -0.1771 C   0  0  0  0  0  0  0  0  0  0  0  0
    0.1408    1.3240   -0.1949 C   0  0  0  0  0  0  0  0  0  0  0  0
   -1.2264    1.0818   -0.0444 C   0  0  0  0  0  0  0  0  0  0  0  0
   -1.6898   -0.2226    0.1200 C   0  0  0  0  0  0  0  0  0  0  0  0
   -0.7877   -1.2855    0.1315 C   0  0  0  0  0  0  0  0  0  0  0  0
    0.5799   -1.0440   -0.0187 C   0  0  0  0  0  0  0  0  0  0  0  0
  1  2  1  0
  2  3  2  0
  3  4  1  0
  4  5  2  0
  5  6  1  0
  6  7  2  0
  7  2  1  0
M  END
>  <target>  (1045) 
-2.12

$$$$

     RDKit          3D

 13 13  0  0  0  0  0  0  0  0999 V2000
    4.7776   -0.4413   -0.2536 C   0  0  0  0  0  0  0  0  0  0  0  0
    3.6381    0.2624    0.2674 N   0  0  0  0  0  0  0  0  0  0  0  0
    2.3569   -0.1504    0.0209 C   0  0  0  0  0  0  0  0  0  0  0  0
    2.0628   -1.1856   -0.5604 O   0  0  0  0  0  0  0  0  0  0  0  0
    1.4749    0.7944    0.5203 O   0  0  0  0  0  0  0  0  0  0  0  0
    0.1227    0.4804    0.3460 C   0  0  0  0  0  0  0  0  0  0  0  0
   -0.4740   -0.5195    1.1128 C   0  0  0  0  0  0  0  0  0  0  0  0
   -1.8396   -0.7812    0.9625 C   0  0  0  0  0  0  0  0  0  0  0  0
   -2.4877   -1.8935    1.7322 C   0  0  0  0  0  0  0  0  0  0  0  0
   -2.5820   -0.0314    0.0366 C   0  0  0  0  0  0  0  0  0  0  0  0
   -1.9849    0.9977   -0.7082 C   0  0  0  0  0  0  0  0  0  0  0  0
   -2.7888    1.7745   -1.7081 C   0  0  0  0  0  0  0  0  0  0  0  0
   -0.6183    1.2488   -0.5495 C   0  0  0  0  0  0  0  0  0  0  0  0
  1  2  1  0
  2  3  1  0
  3  4  2  0
  3  5  1  0
  5  6  1  0
  6  7  2  0
  7  8  1  0
  8  9  1  0
  8 10  2  0
 10 11  1  0
 11 12  1  0
 11 13  2  0
 13  6  1  0
M  END
>  <target>  (1046) 
-2.5810000000000004

$$$$

     RDKit          3D

 18 20  0  0  0  0  0  0  0  0999 V2000
    3.3859    0.5224    1.7539 Cl  0  0  0  0  0  0  0  0  0  0  0  0
    2.3434    0.1501    0.3707 C   0  0  0  0  0  0  0  0  0  0  0  0
    1.3772    1.3014    0.0760 C   0  0  0  0  0  0  0  0  0  0  0  0
    0.3091    0.6485   -0.8052 C   0  0  0  0  0  0  0  0  0  0  0  0
    0.3400   -0.8805   -0.4629 C   0  0  0  0  0  0  0  0  0  0  0  0
    1.4045   -1.0343    0.6307 C   0  0  0  0  0  0  0  0  0  0  0  0
    2.2281   -2.6018    0.5136 Cl  0  0  0  0  0  0  0  0  0  0  0  0
   -1.1558   -1.1814   -0.1215 C   0  0  0  0  0  0  0  0  0  0  0  0
   -1.5566   -2.8860   -0.1714 Cl  0  0  0  0  0  0  0  0  0  0  0  0
   -1.5190   -0.4387    1.1496 C   0  0  0  0  0  0  0  0  0  0  0  0
   -1.5404    0.8679    0.8608 C   0  0  0  0  0  0  0  0  0  0  0  0
   -1.8547    2.1581    1.9116 Cl  0  0  0  0  0  0  0  0  0  0  0  0
   -1.1970    1.0157   -0.6080 C   0  0  0  0  0  0  0  0  0  0  0  0
   -1.6405    2.5307   -1.3676 Cl  0  0  0  0  0  0  0  0  0  0  0  0
   -1.9113   -0.2703   -1.1548 C   0  0  0  0  0  0  0  0  0  0  0  0
   -3.7092   -0.2643   -0.9910 Cl  0  0  0  0  0  0  0  0  0  0  0  0
   -1.5676   -0.6449   -2.8812 Cl  0  0  0  0  0  0  0  0  0  0  0  0
   -1.7980   -1.1754    2.6486 Cl  0  0  0  0  0  0  0  0  0  0  0  0
  1  2  1  0
  2  3  1  0
  3  4  1  0
  4  5  1  0
  5  6  1  0
  6  7  1  0
  5  8  1  0
  8  9  1  0
  8 10  1  0
 10 11  2  0
 11 12  1  0
 11 13  1  0
 13 14  1  0
 13 15  1  0
 15 16  1  0
 15 17  1  0
 10 18  1  0
  6  2  1  0
 13  4  1  0
 15  8  1  0
M  END
>  <target>  (1047) 
-6.86

$$$$

     RDKit          3D

  4  3  0  0  0  0  0  0  0  0999 V2000
    1.8328    0.0631    0.1936 C   0  0  0  0  0  0  0  0  0  0  0  0
    0.6759    1.4352   -0.0418 S   0  0  0  0  0  0  0  0  0  0  0  0
   -0.7349    0.5949   -1.2812 S   0  0  0  0  0  0  0  0  0  0  0  0
   -1.8279   -0.2318   -0.0987 C   0  0  0  0  0  0  0  0  0  0  0  0
  1  2  1  0
  2  3  1  0
  3  4  1  0
M  END
>  <target>  (1048) 
-1.44

$$$$

     RDKit          3D

  9  9  0  0  0  0  0  0  0  0999 V2000
   -2.7088    0.5842   -0.2767 N   0  0  0  0  0  0  0  0  0  0  0  0
   -1.8804   -0.5033   -0.2252 C   0  0  0  0  0  0  0  0  0  0  0  0
   -2.3377   -1.6385   -0.2616 O   0  0  0  0  0  0  0  0  0  0  0  0
   -0.4220   -0.2494   -0.0795 C   0  0  0  0  0  0  0  0  0  0  0  0
    0.1655    0.9636   -0.4620 C   0  0  0  0  0  0  0  0  0  0  0  0
    1.5411    1.1535   -0.3060 C   0  0  0  0  0  0  0  0  0  0  0  0
    2.3328    0.1349    0.2245 C   0  0  0  0  0  0  0  0  0  0  0  0
    1.7550   -1.0792    0.5935 C   0  0  0  0  0  0  0  0  0  0  0  0
    0.3813   -1.2734    0.4382 C   0  0  0  0  0  0  0  0  0  0  0  0
  1  2  1  0
  2  3  2  0
  2  4  1  0
  4  5  2  0
  5  6  1  0
  6  7  2  0
  7  8  1  0
  8  9  2  0
  9  4  1  0
M  END
>  <target>  (1049) 
-0.96

$$$$

     RDKit          3D

  8  8  0  0  0  0  0  0  0  0999 V2000
    2.4965    1.7530    0.0495 Cl  0  0  0  0  0  0  0  0  0  0  0  0
    1.0858    0.7557    0.0212 C   0  0  0  0  0  0  0  0  0  0  0  0
   -0.1580    1.3949    0.0585 C   0  0  0  0  0  0  0  0  0  0  0  0
   -1.3357    0.6457    0.0383 C   0  0  0  0  0  0  0  0  0  0  0  0
   -1.2745   -0.7453   -0.0191 C   0  0  0  0  0  0  0  0  0  0  0  0
   -0.0362   -1.3888   -0.0565 C   0  0  0  0  0  0  0  0  0  0  0  0
    1.1466   -0.6412   -0.0364 C   0  0  0  0  0  0  0  0  0  0  0  0
    2.7871   -1.5967   -0.0901 Br  0  0  0  0  0  0  0  0  0  0  0  0
  1  2  1  0
  2  3  2  0
  3  4  1  0
  4  5  2  0
  5  6  1  0
  6  7  2  0
  7  8  1  0
  7  2  1  0
M  END
>  <target>  (1050) 
-3.19

$$$$

     RDKit          3D

 31 33  0  0  0  0  0  0  0  0999 V2000
    6.6130   -1.6195   -1.6371 C   0  0  0  0  0  0  0  0  0  0  0  0
    5.7984   -0.4634   -1.8384 O   0  0  0  0  0  0  0  0  0  0  0  0
    4.7850   -0.3379   -0.9435 C   0  0  0  0  0  0  0  0  0  0  0  0
    4.5481   -1.1040   -0.0217 O   0  0  0  0  0  0  0  0  0  0  0  0
    3.9897    0.8803   -1.2491 C   0  0  0  0  0  0  0  0  0  0  0  0
    4.5983    1.9910   -1.8562 C   0  0  0  0  0  0  0  0  0  0  0  0
    3.8570    3.1440   -2.1221 C   0  0  0  0  0  0  0  0  0  0  0  0
    2.5043    3.1935   -1.7919 C   0  0  0  0  0  0  0  0  0  0  0  0
    1.8913    2.0957   -1.1864 C   0  0  0  0  0  0  0  0  0  0  0  0
    2.6346    0.9470   -0.8926 C   0  0  0  0  0  0  0  0  0  0  0  0
    2.0243   -0.1518   -0.3476 O   0  0  0  0  0  0  0  0  0  0  0  0
    1.4103    0.1057    0.9305 C   0  0  0  0  0  0  0  0  0  0  0  0
    0.0196    0.3972    0.7401 O   0  0  0  0  0  0  0  0  0  0  0  0
   -0.6582    0.6322    1.9876 C   0  0  0  0  0  0  0  0  0  0  0  0
   -2.0802    1.1226    1.6695 C   0  0  0  0  0  0  0  0  0  0  0  0
   -2.8219    0.0934    1.0012 O   0  0  0  0  0  0  0  0  0  0  0  0
   -4.1520    0.5161    0.6786 C   0  0  0  0  0  0  0  0  0  0  0  0
   -4.1626    1.4817   -0.3711 O   0  0  0  0  0  0  0  0  0  0  0  0
   -3.6500    0.9714   -1.6065 C   0  0  0  0  0  0  0  0  0  0  0  0
   -4.4413   -0.2388   -2.0974 C   0  0  0  0  0  0  0  0  0  0  0  0
   -3.8656   -0.7684   -3.2919 O   0  0  0  0  0  0  0  0  0  0  0  0
   -4.4691   -1.3179   -1.0151 C   0  0  0  0  0  0  0  0  0  0  0  0
   -5.3261   -2.3898   -1.4443 O   0  0  0  0  0  0  0  0  0  0  0  0
   -4.9758   -0.7308    0.3027 C   0  0  0  0  0  0  0  0  0  0  0  0
   -4.9086   -1.7454    1.3186 O   0  0  0  0  0  0  0  0  0  0  0  0
   -0.6493   -0.6721    2.8134 C   0  0  0  0  0  0  0  0  0  0  0  0
   -1.3112   -1.7445    2.1256 O   0  0  0  0  0  0  0  0  0  0  0  0
    0.7974   -1.0871    3.0836 C   0  0  0  0  0  0  0  0  0  0  0  0
    1.4211   -0.1374    3.9637 O   0  0  0  0  0  0  0  0  0  0  0  0
    1.6086   -1.1690    1.7850 C   0  0  0  0  0  0  0  0  0  0  0  0
    2.9899   -1.3409    2.1579 O   0  0  0  0  0  0  0  0  0  0  0  0
  1  2  1  0
  2  3  1  0
  3  4  2  0
  3  5  1  0
  5  6  2  0
  6  7  1  0
  7  8  2  0
  8  9  1  0
  9 10  2  0
 10 11  1  0
 11 12  1  0
 12 13  1  0
 13 14  1  0
 14 15  1  0
 15 16  1  0
 16 17  1  0
 17 18  1  0
 18 19  1  0
 19 20  1  0
 20 21  1  0
 20 22  1  0
 22 23  1  0
 22 24  1  0
 24 25  1  0
 14 26  1  0
 26 27  1  0
 26 28  1  0
 28 29  1  0
 28 30  1  0
 30 31  1  0
 10  5  1  0
 30 12  1  0
 24 17  1  0
M  END
>  <target>  (1051) 
-0.742

$$$$

     RDKit          3D

  8  7  0  0  0  0  0  0  0  0999 V2000
    3.8368    0.4216   -0.3250 C   0  0  0  0  0  0  0  0  0  0  0  0
    2.6049   -0.4534   -0.1564 C   0  0  0  0  0  0  0  0  0  0  0  0
    1.3183    0.3684   -0.2399 C   0  0  0  0  0  0  0  0  0  0  0  0
    0.0805   -0.5185   -0.0681 C   0  0  0  0  0  0  0  0  0  0  0  0
   -1.2218    0.2913   -0.1093 C   0  0  0  0  0  0  0  0  0  0  0  0
   -1.3461    0.9346   -1.3756 O   0  0  0  0  0  0  0  0  0  0  0  0
   -2.4399   -0.6073    0.1324 C   0  0  0  0  0  0  0  0  0  0  0  0
   -3.7427    0.1809    0.1613 C   0  0  0  0  0  0  0  0  0  0  0  0
  1  2  1  0
  2  3  1  0
  3  4  1  0
  4  5  1  0
  5  6  1  0
  5  7  1  0
  7  8  1  0
M  END
>  <target>  (1052) 
-1.47

$$$$

     RDKit          3D

 20 22  0  0  0  0  0  0  0  0999 V2000
    0.3665   -2.5466    2.0786 C   0  0  0  0  0  0  0  0  0  0  0  0
    1.1962   -2.0225    0.9056 C   0  0  0  0  0  0  0  0  0  0  0  0
    0.8911   -0.6050    0.6209 N   0  0  0  0  0  0  0  0  0  0  0  0
   -0.3894   -0.3896    0.0527 C   0  0  0  0  0  0  0  0  0  0  0  0
   -1.0665   -1.4668   -0.4312 N   0  0  0  0  0  0  0  0  0  0  0  0
   -2.3236   -1.3226   -0.8984 C   0  0  0  0  0  0  0  0  0  0  0  0
   -3.0077   -2.5500   -1.4195 C   0  0  0  0  0  0  0  0  0  0  0  0
   -2.9786   -0.1048   -0.8921 C   0  0  0  0  0  0  0  0  0  0  0  0
   -2.3128    1.0221   -0.4033 C   0  0  0  0  0  0  0  0  0  0  0  0
   -3.0422    2.3391   -0.4041 C   0  0  0  0  0  0  0  0  0  0  0  0
   -0.9851    0.8871    0.0618 C   0  0  0  0  0  0  0  0  0  0  0  0
   -0.3643    2.0351    0.5868 N   0  0  0  0  0  0  0  0  0  0  0  0
    0.9567    2.3439    0.7528 C   0  0  0  0  0  0  0  0  0  0  0  0
    1.2389    3.4251    1.2746 O   0  0  0  0  0  0  0  0  0  0  0  0
    2.0398    1.5131    0.2045 C   0  0  0  0  0  0  0  0  0  0  0  0
    3.1936    2.1897   -0.2327 C   0  0  0  0  0  0  0  0  0  0  0  0
    4.2805    1.4782   -0.7174 C   0  0  0  0  0  0  0  0  0  0  0  0
    4.1814    0.1057   -0.7341 C   0  0  0  0  0  0  0  0  0  0  0  0
    3.0921   -0.5686   -0.3061 N   0  0  0  0  0  0  0  0  0  0  0  0
    2.0105    0.1225    0.1615 C   0  0  0  0  0  0  0  0  0  0  0  0
  1  2  1  0
  2  3  1  0
  3  4  1  0
  4  5  2  0
  5  6  1  0
  6  7  1  0
  6  8  2  0
  8  9  1  0
  9 10  1  0
  9 11  2  0
 11 12  1  0
 12 13  1  0
 13 14  2  0
 13 15  1  0
 15 16  2  0
 16 17  1  0
 17 18  2  0
 18 19  1  0
 19 20  2  0
 11  4  1  0
 20  3  1  0
 20 15  1  0
M  END
>  <target>  (1053) 
-4.553999999999999

$$$$

     RDKit          3D

  9  9  0  0  0  0  0  0  0  0999 V2000
    2.3498   -0.9126   -0.1999 O   0  0  0  0  0  0  0  0  0  0  0  0
    1.0838   -0.4337   -0.0346 C   0  0  0  0  0  0  0  0  0  0  0  0
    0.8455    0.9125    0.2231 C   0  0  0  0  0  0  0  0  0  0  0  0
   -0.4702    1.3483    0.3837 C   0  0  0  0  0  0  0  0  0  0  0  0
   -0.7805    3.0112    0.7031 Cl  0  0  0  0  0  0  0  0  0  0  0  0
   -1.5356    0.4545    0.2888 C   0  0  0  0  0  0  0  0  0  0  0  0
   -1.2750   -0.8898    0.0300 C   0  0  0  0  0  0  0  0  0  0  0  0
   -2.5822   -2.0027   -0.0894 Cl  0  0  0  0  0  0  0  0  0  0  0  0
    0.0335   -1.3403   -0.1328 C   0  0  0  0  0  0  0  0  0  0  0  0
  1  2  1  0
  2  3  2  0
  3  4  1  0
  4  5  1  0
  4  6  2  0
  6  7  1  0
  7  8  1  0
  7  9  2  0
  9  2  1  0
M  END
>  <target>  (1054) 
-1.34

$$$$

     RDKit          3D

 15 17  0  0  0  0  0  0  0  0999 V2000
   -3.7276    0.0093    0.1841 C   0  0  0  0  0  0  0  0  0  0  0  0
   -2.4029    0.6826   -0.0752 C   0  0  0  0  0  0  0  0  0  0  0  0
   -2.4173    2.0293   -0.4605 C   0  0  0  0  0  0  0  0  0  0  0  0
   -1.2305    2.6972   -0.7114 C   0  0  0  0  0  0  0  0  0  0  0  0
   -0.0158    2.0254   -0.5797 C   0  0  0  0  0  0  0  0  0  0  0  0
    0.0643    0.6651   -0.1938 C   0  0  0  0  0  0  0  0  0  0  0  0
   -1.1645   -0.0084    0.0608 C   0  0  0  0  0  0  0  0  0  0  0  0
   -1.1147   -1.3596    0.4455 C   0  0  0  0  0  0  0  0  0  0  0  0
    0.0920   -2.0422    0.5807 C   0  0  0  0  0  0  0  0  0  0  0  0
    1.3053   -1.4024    0.3365 C   0  0  0  0  0  0  0  0  0  0  0  0
    2.5046   -2.1214    0.4825 C   0  0  0  0  0  0  0  0  0  0  0  0
    3.7369   -1.5191    0.2481 C   0  0  0  0  0  0  0  0  0  0  0  0
    3.7823   -0.1886   -0.1355 C   0  0  0  0  0  0  0  0  0  0  0  0
    2.5945    0.5351   -0.2834 C   0  0  0  0  0  0  0  0  0  0  0  0
    1.3169   -0.0407   -0.0543 C   0  0  0  0  0  0  0  0  0  0  0  0
  1  2  1  0
  2  3  2  0
  3  4  1  0
  4  5  2  0
  5  6  1  0
  6  7  2  0
  7  8  1  0
  8  9  2  0
  9 10  1  0
 10 11  2  0
 11 12  1  0
 12 13  2  0
 13 14  1  0
 14 15  2  0
  7  2  1  0
 15  6  1  0
 15 10  1  0
M  END
>  <target>  (1055) 
-5.85

$$$$

     RDKit          3D

  9  8  0  0  0  0  0  0  0  0999 V2000
    3.6289   -0.1999   -0.1257 C   0  0  0  0  0  0  0  0  0  0  0  0
    2.4178   -0.3027    0.7878 C   0  0  0  0  0  0  0  0  0  0  0  0
    1.1288    0.0742    0.0545 C   0  0  0  0  0  0  0  0  0  0  0  0
   -0.0849   -0.0337    0.9836 C   0  0  0  0  0  0  0  0  0  0  0  0
   -1.4377    0.3392    0.3411 C   0  0  0  0  0  0  0  0  0  0  0  0
   -1.8174   -0.5243   -0.8815 C   0  0  0  0  0  0  0  0  0  0  0  0
   -1.8547   -2.0180   -0.5900 C   0  0  0  0  0  0  0  0  0  0  0  0
   -1.4842    1.8324   -0.0204 C   0  0  0  0  0  0  0  0  0  0  0  0
   -2.8138    2.2061   -0.3618 O   0  0  0  0  0  0  0  0  0  0  0  0
  1  2  1  0
  2  3  1  0
  3  4  1  0
  4  5  1  0
  5  6  1  0
  6  7  1  0
  5  8  1  0
  8  9  1  0
M  END
>  <target>  (1056) 
-2.11

$$$$

     RDKit          3D

 15 14  0  0  0  0  0  0  0  0999 V2000
   -1.3116    0.9460   -2.3800 C   0  0  0  0  0  0  0  0  0  0  0  0
   -0.9948    1.2775   -0.9197 C   0  0  0  0  0  0  0  0  0  0  0  0
   -2.0506    2.2032   -0.3076 C   0  0  0  0  0  0  0  0  0  0  0  0
   -0.7933    0.0456   -0.1102 N   0  0  0  0  0  0  0  0  0  0  0  0
   -1.9639   -0.8459    0.0724 C   0  0  0  0  0  0  0  0  0  0  0  0
   -1.7623   -2.2272   -0.5581 C   0  0  0  0  0  0  0  0  0  0  0  0
   -2.4033   -0.9498    1.5353 C   0  0  0  0  0  0  0  0  0  0  0  0
    0.4248   -0.3443    0.4658 C   0  0  0  0  0  0  0  0  0  0  0  0
    0.5609   -1.3593    1.1396 O   0  0  0  0  0  0  0  0  0  0  0  0
    1.8219    0.6875    0.1908 S   0  0  0  0  0  0  0  0  0  0  0  0
    3.0757   -0.2769    1.0845 C   0  0  0  0  0  0  0  0  0  0  0  0
    4.4066    0.4181    1.0106 C   0  0  0  0  0  0  0  0  0  0  0  0
    5.4176    0.1290    0.1829 C   0  0  0  0  0  0  0  0  0  0  0  0
    5.3876   -1.0866   -1.0238 Cl  0  0  0  0  0  0  0  0  0  0  0  0
    4.6470    1.6818    2.1852 Cl  0  0  0  0  0  0  0  0  0  0  0  0
  1  2  1  0
  2  3  1  0
  2  4  1  0
  4  5  1  0
  5  6  1  0
  5  7  1  0
  4  8  1  0
  8  9  2  0
  8 10  1  0
 10 11  1  0
 11 12  1  0
 12 13  2  3
 13 14  1  0
 12 15  1  0
M  END
>  <target>  (1057) 
-4.2860000000000005

$$$$

     RDKit          3D

  7  7  0  0  0  0  0  0  0  0999 V2000
    2.2095    0.0348    0.2260 C   0  0  0  0  0  0  0  0  0  0  0  0
    0.7204    0.0110    0.0487 C   0  0  0  0  0  0  0  0  0  0  0  0
    0.0298   -1.2067    0.0110 C   0  0  0  0  0  0  0  0  0  0  0  0
   -1.3596   -1.2278   -0.1223 C   0  0  0  0  0  0  0  0  0  0  0  0
   -2.0710   -0.0326   -0.2085 C   0  0  0  0  0  0  0  0  0  0  0  0
   -1.3940    1.1845   -0.1571 C   0  0  0  0  0  0  0  0  0  0  0  0
   -0.0046    1.2069   -0.0238 C   0  0  0  0  0  0  0  0  0  0  0  0
  1  2  1  0
  2  3  2  0
  3  4  1  0
  4  5  2  0
  5  6  1  0
  6  7  2  0
  7  2  1  0
M  END
>  <target>  (1058) 
-2.21

$$$$

     RDKit          3D

 11 11  0  0  0  0  0  0  0  0999 V2000
    1.9912    2.8443    0.4636 Cl  0  0  0  0  0  0  0  0  0  0  0  0
    1.2909    1.2990    0.2216 C   0  0  0  0  0  0  0  0  0  0  0  0
    2.0805    0.1756    0.0795 C   0  0  0  0  0  0  0  0  0  0  0  0
    1.4414   -1.0409   -0.1133 C   0  0  0  0  0  0  0  0  0  0  0  0
    0.0480   -1.0816   -0.1554 C   0  0  0  0  0  0  0  0  0  0  0  0
   -0.6918    0.1024   -0.0032 C   0  0  0  0  0  0  0  0  0  0  0  0
   -0.0578    1.2936    0.1858 N   0  0  0  0  0  0  0  0  0  0  0  0
   -2.2265    0.0658   -0.0483 C   0  0  0  0  0  0  0  0  0  0  0  0
   -2.9794    1.6804    0.1659 Cl  0  0  0  0  0  0  0  0  0  0  0  0
   -2.7777   -0.5848   -1.6337 Cl  0  0  0  0  0  0  0  0  0  0  0  0
   -2.8528   -1.0034    1.2574 Cl  0  0  0  0  0  0  0  0  0  0  0  0
  1  2  1  0
  2  3  2  0
  3  4  1  0
  4  5  2  0
  5  6  1  0
  6  7  2  0
  6  8  1  0
  8  9  1  0
  8 10  1  0
  8 11  1  0
  7  2  1  0
M  END
>  <target>  (1059) 
-3.76

$$$$

     RDKit          3D

  7  7  0  0  0  0  0  0  0  0999 V2000
    0.2882   -1.5146    0.2914 C   0  0  0  0  0  0  0  0  0  0  0  0
    1.3568   -0.4404    0.4745 C   0  0  0  0  0  0  0  0  0  0  0  0
    1.3998    0.6140   -0.6297 C   0  0  0  0  0  0  0  0  0  0  0  0
    0.3152    1.6517   -0.5606 C   0  0  0  0  0  0  0  0  0  0  0  0
   -0.9179    1.5155   -0.0488 C   0  0  0  0  0  0  0  0  0  0  0  0
   -1.5661    0.2596    0.4616 C   0  0  0  0  0  0  0  0  0  0  0  0
   -1.0766   -1.0316   -0.1913 C   0  0  0  0  0  0  0  0  0  0  0  0
  1  2  1  0
  2  3  1  0
  3  4  1  0
  4  5  2  0
  5  6  1  0
  6  7  1  0
  7  1  1  0
M  END
>  <target>  (1060) 
-3.18

$$$$

     RDKit          3D

 12 11  0  0  0  0  0  0  0  0999 V2000
   -3.2043    0.8419    0.8688 C   0  0  0  0  0  0  0  0  0  0  0  0
   -2.5395    0.4892   -0.3842 N   0  0  0  0  0  0  0  0  0  0  0  0
   -3.3541   -0.3224   -1.2863 C   0  0  0  0  0  0  0  0  0  0  0  0
   -1.2566    0.9285   -0.7418 C   0  0  0  0  0  0  0  0  0  0  0  0
   -0.6408    0.9427   -2.3117 S   0  0  0  0  0  0  0  0  0  0  0  0
   -0.2100    1.5338    0.5565 S   0  0  0  0  0  0  0  0  0  0  0  0
    0.1322   -0.1842    1.6536 S   0  0  0  0  0  0  0  0  0  0  0  0
    1.2642   -1.0603    0.6055 C   0  0  0  0  0  0  0  0  0  0  0  0
    0.7308   -2.5026   -0.0867 S   0  0  0  0  0  0  0  0  0  0  0  0
    2.5405   -0.5065    0.4293 N   0  0  0  0  0  0  0  0  0  0  0  0
    3.1273    0.4937    1.3192 C   0  0  0  0  0  0  0  0  0  0  0  0
    3.4271   -0.9439   -0.6471 C   0  0  0  0  0  0  0  0  0  0  0  0
  1  2  1  0
  2  3  1  0
  2  4  1  0
  4  5  2  0
  4  6  1  0
  6  7  1  0
  7  8  1  0
  8  9  2  0
  8 10  1  0
 10 11  1  0
 10 12  1  0
M  END
>  <target>  (1061) 
-3.9

$$$$

     RDKit          3D

 24 26  0  0  0  0  0  0  0  0999 V2000
   -2.2664    2.9164    1.6714 C   0  0  0  0  0  0  0  0  0  0  0  0
   -1.5639    1.7589    1.2317 O   0  0  0  0  0  0  0  0  0  0  0  0
   -2.2719    0.7668    0.5714 C   0  0  0  0  0  0  0  0  0  0  0  0
   -3.5822    0.8308    0.2716 C   0  0  0  0  0  0  0  0  0  0  0  0
   -4.2623   -0.2521   -0.4796 C   0  0  0  0  0  0  0  0  0  0  0  0
   -5.4645   -0.1503   -0.7136 O   0  0  0  0  0  0  0  0  0  0  0  0
   -3.4434   -1.4170   -0.9816 C   0  0  0  0  0  0  0  0  0  0  0  0
   -2.2680   -1.7090   -0.0482 C   0  0  0  0  0  0  0  0  0  0  0  0
   -1.4594   -2.9046   -0.5633 C   0  0  0  0  0  0  0  0  0  0  0  0
   -1.4162   -0.4448    0.2042 C   0  0  0  0  0  0  0  0  0  0  0  0
   -0.4933   -0.7376    1.2927 O   0  0  0  0  0  0  0  0  0  0  0  0
    0.7740   -0.4973    0.8131 C   0  0  0  0  0  0  0  0  0  0  0  0
    1.9380   -0.6537    1.5542 C   0  0  0  0  0  0  0  0  0  0  0  0
    1.8381   -1.1662    3.2017 Cl  0  0  0  0  0  0  0  0  0  0  0  0
    3.1821   -0.4026    0.9384 C   0  0  0  0  0  0  0  0  0  0  0  0
    4.2982   -0.5850    1.7153 O   0  0  0  0  0  0  0  0  0  0  0  0
    5.5704   -0.3717    1.1167 C   0  0  0  0  0  0  0  0  0  0  0  0
    3.2169    0.0064   -0.4088 C   0  0  0  0  0  0  0  0  0  0  0  0
    2.0327    0.1820   -1.1322 C   0  0  0  0  0  0  0  0  0  0  0  0
    2.1220    0.5267   -2.4476 O   0  0  0  0  0  0  0  0  0  0  0  0
    1.8825    1.9240   -2.6250 C   0  0  0  0  0  0  0  0  0  0  0  0
    0.8336   -0.0907   -0.5045 C   0  0  0  0  0  0  0  0  0  0  0  0
   -0.5316   -0.0557   -0.9746 C   0  0  0  0  0  0  0  0  0  0  0  0
   -0.8843    0.2390   -2.1028 O   0  0  0  0  0  0  0  0  0  0  0  0
  1  2  1  0
  2  3  1  0
  3  4  2  0
  4  5  1  0
  5  6  2  0
  5  7  1  0
  7  8  1  0
  8  9  1  0
  8 10  1  0
 10 11  1  0
 11 12  1  0
 12 13  2  0
 13 14  1  0
 13 15  1  0
 15 16  1  0
 16 17  1  0
 15 18  2  0
 18 19  1  0
 19 20  1  0
 20 21  1  0
 19 22  2  0
 22 23  1  0
 23 24  2  0
 10  3  1  0
 22 12  1  0
 23 10  1  0
M  END
>  <target>  (1062) 
-3.2460000000000004

$$$$

     RDKit          3D

 11 10  0  0  0  0  0  0  0  0999 V2000
   -4.2955    0.1761    1.6459 C   0  0  0  0  0  0  0  0  0  0  0  0
   -3.5282   -0.8885    0.8781 C   0  0  0  0  0  0  0  0  0  0  0  0
   -2.5849   -0.2658   -0.1520 C   0  0  0  0  0  0  0  0  0  0  0  0
   -1.8126   -1.3421   -0.9173 C   0  0  0  0  0  0  0  0  0  0  0  0
   -0.9374   -0.7817   -2.0426 C   0  0  0  0  0  0  0  0  0  0  0  0
    0.1409    0.2190   -1.6156 C   0  0  0  0  0  0  0  0  0  0  0  0
    1.1443   -0.3564   -0.6142 C   0  0  0  0  0  0  0  0  0  0  0  0
    2.2621    0.6444   -0.3129 C   0  0  0  0  0  0  0  0  0  0  0  0
    3.2624    0.0747    0.6906 C   0  0  0  0  0  0  0  0  0  0  0  0
    4.3783    1.0654    0.9953 C   0  0  0  0  0  0  0  0  0  0  0  0
    5.2752    0.5044    1.9444 O   0  0  0  0  0  0  0  0  0  0  0  0
  1  2  1  0
  2  3  1  0
  3  4  1  0
  4  5  1  0
  5  6  1  0
  6  7  1  0
  7  8  1  0
  8  9  1  0
  9 10  1  0
 10 11  1  0
M  END
>  <target>  (1063) 
-3.63

$$$$

     RDKit          3D

  7  6  0  0  0  0  0  0  0  0999 V2000
    1.8172    1.3310   -0.0223 C   0  0  0  0  0  0  0  0  0  0  0  0
    0.9583    0.4063    0.8319 C   0  0  0  0  0  0  0  0  0  0  0  0
    0.0072   -0.5419    0.0524 C   0  0  0  0  0  0  0  0  0  0  0  0
   -0.7904   -1.3693    1.0828 C   0  0  0  0  0  0  0  0  0  0  0  0
    0.8290   -1.5301   -0.8025 C   0  0  0  0  0  0  0  0  0  0  0  0
   -0.9666    0.2140   -0.8919 C   0  0  0  0  0  0  0  0  0  0  0  0
   -1.8517    1.2623   -0.2284 C   0  0  0  0  0  0  0  0  0  0  0  0
  1  2  1  0
  2  3  1  0
  3  4  1  0
  3  5  1  0
  3  6  1  0
  6  7  1  0
M  END
>  <target>  (1064) 
-4.23

$$$$

     RDKit          3D

 16 15  0  0  0  0  0  0  0  0999 V2000
   -0.8549    2.0309   -1.9810 C   0  0  0  0  0  0  0  0  0  0  0  0
   -0.9957    1.9881   -0.5483 N   0  0  0  0  0  0  0  0  0  0  0  0
   -2.1834    1.5711    0.0207 C   0  0  0  0  0  0  0  0  0  0  0  0
   -3.1797    1.3059   -0.6490 O   0  0  0  0  0  0  0  0  0  0  0  0
   -2.1740    1.5203    1.5519 C   0  0  0  0  0  0  0  0  0  0  0  0
   -3.5132    1.0623    2.1198 C   0  0  0  0  0  0  0  0  0  0  0  0
   -0.8088    0.4810    2.2099 S   0  0  0  0  0  0  0  0  0  0  0  0
   -1.0239   -1.0441    1.2228 C   0  0  0  0  0  0  0  0  0  0  0  0
   -0.0877   -2.1749    1.6636 C   0  0  0  0  0  0  0  0  0  0  0  0
    1.6955   -1.8196    1.5943 S   0  0  0  0  0  0  0  0  0  0  0  0
    2.0209   -1.0330   -0.3022 P   0  0  0  0  0  0  0  0  0  0  0  0
    1.5290    0.3838   -0.4101 O   0  0  0  0  0  0  0  0  0  0  0  0
    3.5804   -1.1699   -0.7064 O   0  0  0  0  0  0  0  0  0  0  0  0
    4.4848   -0.2833   -0.0788 C   0  0  0  0  0  0  0  0  0  0  0  0
    1.3186   -2.0008   -1.3911 O   0  0  0  0  0  0  0  0  0  0  0  0
    1.4157   -1.6200   -2.7486 C   0  0  0  0  0  0  0  0  0  0  0  0
  1  2  1  0
  2  3  1  0
  3  4  2  0
  3  5  1  0
  5  6  1  0
  5  7  1  0
  7  8  1  0
  8  9  1  0
  9 10  1  0
 10 11  1  0
 11 12  2  0
 11 13  1  0
 13 14  1  0
 11 15  1  0
 15 16  1  0
M  END
>  <target>  (1065) 
1.1440000000000001

$$$$

     RDKit          3D

 11 11  0  0  0  0  0  0  0  0999 V2000
   -2.1513   -1.3919    0.0737 O   0  0  0  0  0  0  0  0  0  0  0  0
   -1.0141   -0.6320    0.0251 C   0  0  0  0  0  0  0  0  0  0  0  0
   -1.1367    0.6432   -0.5113 C   0  0  0  0  0  0  0  0  0  0  0  0
   -0.0151    1.4698   -0.5900 C   0  0  0  0  0  0  0  0  0  0  0  0
   -0.2459    3.0442   -1.2701 Cl  0  0  0  0  0  0  0  0  0  0  0  0
    1.2346    1.0191   -0.1302 C   0  0  0  0  0  0  0  0  0  0  0  0
    2.6228    2.0615   -0.2353 Cl  0  0  0  0  0  0  0  0  0  0  0  0
    1.3513   -0.2763    0.4129 C   0  0  0  0  0  0  0  0  0  0  0  0
    2.8864   -0.8579    0.9889 Cl  0  0  0  0  0  0  0  0  0  0  0  0
    0.2184   -1.1027    0.4890 C   0  0  0  0  0  0  0  0  0  0  0  0
    0.2796   -2.7075    1.1432 Cl  0  0  0  0  0  0  0  0  0  0  0  0
  1  2  1  0
  2  3  2  0
  3  4  1  0
  4  5  1  0
  4  6  2  0
  6  7  1  0
  6  8  1  0
  8  9  1  0
  8 10  2  0
 10 11  1  0
 10  2  1  0
M  END
>  <target>  (1066) 
-3.15

$$$$

     RDKit          3D

  5  4  0  0  0  0  0  0  0  0999 V2000
   -1.7775    0.1377   -0.1451 C   0  0  0  0  0  0  0  0  0  0  0  0
   -0.4354   -0.2495    0.4539 C   0  0  0  0  0  0  0  0  0  0  0  0
    0.7225    0.2205   -0.4188 C   0  0  0  0  0  0  0  0  0  0  0  0
    2.0690   -0.1515    0.1536 C   0  0  0  0  0  0  0  0  0  0  0  0
    2.2380   -0.7636    1.2027 O   0  0  0  0  0  0  0  0  0  0  0  0
  1  2  1  0
  2  3  1  0
  3  4  1  0
  4  5  2  0
M  END
>  <target>  (1067) 
-0.01

$$$$

     RDKit          3D

 31 34  0  0  0  0  0  0  0  0999 V2000
    2.7371   -1.6995    2.3757 C   0  0  0  0  0  0  0  0  0  0  0  0
    1.7834   -0.7520    1.6534 C   0  0  0  0  0  0  0  0  0  0  0  0
    0.3884   -1.3746    1.4596 C   0  0  0  0  0  0  0  0  0  0  0  0
   -0.0334   -1.1036   -0.0004 C   0  0  0  0  0  0  0  0  0  0  0  0
   -1.5519   -0.8922   -0.2459 C   0  0  0  0  0  0  0  0  0  0  0  0
   -2.3731   -2.0557    0.3733 C   0  0  0  0  0  0  0  0  0  0  0  0
   -3.8265   -1.7073    0.6918 C   0  0  0  0  0  0  0  0  0  0  0  0
   -4.3170   -0.6873   -0.2905 C   0  0  0  0  0  0  0  0  0  0  0  0
   -5.2042   -1.0282   -1.2420 C   0  0  0  0  0  0  0  0  0  0  0  0
   -5.5551   -0.1007   -2.3361 C   0  0  0  0  0  0  0  0  0  0  0  0
   -6.4274   -0.3719   -3.1508 O   0  0  0  0  0  0  0  0  0  0  0  0
   -4.7717    1.1460   -2.4301 C   0  0  0  0  0  0  0  0  0  0  0  0
   -3.8987    1.4872   -1.4712 C   0  0  0  0  0  0  0  0  0  0  0  0
   -3.6392    0.6903   -0.1910 C   0  0  0  0  0  0  0  0  0  0  0  0
   -4.3553    1.4853    0.9309 C   0  0  0  0  0  0  0  0  0  0  0  0
   -2.0919    0.4995    0.1827 C   0  0  0  0  0  0  0  0  0  0  0  0
   -1.9925    0.5360    1.5597 F   0  0  0  0  0  0  0  0  0  0  0  0
   -1.1660    1.6287   -0.3318 C   0  0  0  0  0  0  0  0  0  0  0  0
   -1.5572    2.8978    0.2013 O   0  0  0  0  0  0  0  0  0  0  0  0
    0.3018    1.4108    0.0416 C   0  0  0  0  0  0  0  0  0  0  0  0
    0.8778    0.0644   -0.4580 C   0  0  0  0  0  0  0  0  0  0  0  0
    0.9950    0.0835   -1.9956 C   0  0  0  0  0  0  0  0  0  0  0  0
    2.2344   -0.3027    0.2402 C   0  0  0  0  0  0  0  0  0  0  0  0
    2.8237   -1.4172   -0.4335 O   0  0  0  0  0  0  0  0  0  0  0  0
    3.2226    0.8882    0.2955 C   0  0  0  0  0  0  0  0  0  0  0  0
    3.3039    1.6318    1.2774 O   0  0  0  0  0  0  0  0  0  0  0  0
    4.1071    1.1233   -0.9281 C   0  0  0  0  0  0  0  0  0  0  0  0
    5.4849    1.2854   -0.5858 O   0  0  0  0  0  0  0  0  0  0  0  0
    6.0497    0.1827   -0.0200 C   0  0  0  0  0  0  0  0  0  0  0  0
    7.4771    0.4554    0.3396 C   0  0  0  0  0  0  0  0  0  0  0  0
    5.4730   -0.8821    0.1672 O   0  0  0  0  0  0  0  0  0  0  0  0
  1  2  1  0
  2  3  1  0
  3  4  1  0
  4  5  1  0
  5  6  1  0
  6  7  1  0
  7  8  1  0
  8  9  2  0
  9 10  1  0
 10 11  2  0
 10 12  1  0
 12 13  2  0
 13 14  1  0
 14 15  1  0
 14 16  1  0
 16 17  1  0
 16 18  1  0
 18 19  1  0
 18 20  1  0
 20 21  1  0
 21 22  1  0
 21 23  1  0
 23 24  1  0
 23 25  1  0
 25 26  2  0
 25 27  1  0
 27 28  1  0
 28 29  1  0
 29 30  1  0
 29 31  2  0
 14  8  1  0
 16  5  1  0
 21  4  1  0
 23  2  1  0
M  END
>  <target>  (1068) 
-4.9

$$$$

     RDKit          3D

  4  3  0  0  0  0  0  0  0  0999 V2000
    1.9243   -0.1634   -0.1264 C   0  0  0  0  0  0  0  0  0  0  0  0
    0.4609   -0.3726   -0.4816 C   0  0  0  0  0  0  0  0  0  0  0  0
   -0.4609    0.3726    0.4816 C   0  0  0  0  0  0  0  0  0  0  0  0
   -1.9243    0.1634    0.1264 C   0  0  0  0  0  0  0  0  0  0  0  0
  1  2  1  0
  2  3  1  0
  3  4  1  0
M  END
>  <target>  (1069) 
-2.57

$$$$

     RDKit          3D

  9  9  0  0  0  0  0  0  0  0999 V2000
    2.6366   -0.1332    0.3776 C   0  0  0  0  0  0  0  0  0  0  0  0
    1.5934    0.7644    0.0162 O   0  0  0  0  0  0  0  0  0  0  0  0
    0.3245    0.2453   -0.0192 C   0  0  0  0  0  0  0  0  0  0  0  0
   -0.0364   -1.0719    0.2642 C   0  0  0  0  0  0  0  0  0  0  0  0
   -1.3792   -1.4615    0.1867 C   0  0  0  0  0  0  0  0  0  0  0  0
   -2.3643   -0.5397   -0.1732 C   0  0  0  0  0  0  0  0  0  0  0  0
   -2.0123    0.7774   -0.4577 C   0  0  0  0  0  0  0  0  0  0  0  0
   -0.6775    1.1554   -0.3783 C   0  0  0  0  0  0  0  0  0  0  0  0
   -0.3560    2.4554   -0.6625 O   0  0  0  0  0  0  0  0  0  0  0  0
  1  2  1  0
  2  3  1  0
  3  4  2  0
  4  5  1  0
  5  6  2  0
  6  7  1  0
  7  8  2  0
  8  9  1  0
  8  3  1  0
M  END
>  <target>  (1070) 
-1.96

$$$$

     RDKit          3D

 27 30  0  0  0  0  0  0  0  0999 V2000
   -3.5287    1.9472   -1.7207 C   0  0  0  0  0  0  0  0  0  0  0  0
   -2.7478    0.6758   -1.3572 C   0  0  0  0  0  0  0  0  0  0  0  0
   -1.2427    0.9666   -1.4513 C   0  0  0  0  0  0  0  0  0  0  0  0
   -0.3598   -0.2648   -1.1511 C   0  0  0  0  0  0  0  0  0  0  0  0
    1.1387    0.0850   -1.3346 C   0  0  0  0  0  0  0  0  0  0  0  0
    1.9946   -1.1602   -1.6662 C   0  0  0  0  0  0  0  0  0  0  0  0
    3.3626   -0.9588   -1.0099 C   0  0  0  0  0  0  0  0  0  0  0  0
    3.3638    0.4860   -0.5147 C   0  0  0  0  0  0  0  0  0  0  0  0
    3.7177    1.2972   -1.6547 O   0  0  0  0  0  0  0  0  0  0  0  0
    4.4083    0.8136    0.5740 C   0  0  0  0  0  0  0  0  0  0  0  0
    4.8879    1.9525    0.6369 O   0  0  0  0  0  0  0  0  0  0  0  0
    4.8605   -0.2562    1.5314 C   0  0  0  0  0  0  0  0  0  0  0  0
    1.8695    0.7662   -0.1435 C   0  0  0  0  0  0  0  0  0  0  0  0
    1.6018    2.2836   -0.0771 C   0  0  0  0  0  0  0  0  0  0  0  0
    1.4421    0.1164    1.1851 C   0  0  0  0  0  0  0  0  0  0  0  0
   -0.0783   -0.0381    1.3674 C   0  0  0  0  0  0  0  0  0  0  0  0
   -0.2398   -0.6427    2.6558 O   0  0  0  0  0  0  0  0  0  0  0  0
   -0.7020   -0.8975    0.2295 C   0  0  0  0  0  0  0  0  0  0  0  0
   -0.0562   -2.1155    0.3001 F   0  0  0  0  0  0  0  0  0  0  0  0
   -2.2534   -1.2021    0.3485 C   0  0  0  0  0  0  0  0  0  0  0  0
   -2.6535   -2.3392   -0.6328 C   0  0  0  0  0  0  0  0  0  0  0  0
   -2.6313   -1.7653    1.7135 C   0  0  0  0  0  0  0  0  0  0  0  0
   -3.5513   -1.2452    2.5358 C   0  0  0  0  0  0  0  0  0  0  0  0
   -4.2951   -0.0319    2.1583 C   0  0  0  0  0  0  0  0  0  0  0  0
   -5.1402    0.4566    2.8969 O   0  0  0  0  0  0  0  0  0  0  0  0
   -3.9824    0.5749    0.8457 C   0  0  0  0  0  0  0  0  0  0  0  0
   -3.0655    0.0602    0.0029 C   0  0  0  0  0  0  0  0  0  0  0  0
  1  2  1  0
  2  3  1  0
  3  4  1  0
  4  5  1  0
  5  6  1  0
  6  7  1  0
  7  8  1  0
  8  9  1  0
  8 10  1  0
 10 11  2  0
 10 12  1  0
  8 13  1  0
 13 14  1  0
 13 15  1  0
 15 16  1  0
 16 17  1  0
 16 18  1  0
 18 19  1  0
 18 20  1  0
 20 21  1  0
 20 22  1  0
 22 23  2  0
 23 24  1  0
 24 25  2  0
 24 26  1  0
 26 27  2  0
 27  2  1  0
 18  4  1  0
 13  5  1  0
 27 20  1  0
M  END
>  <target>  (1071) 
-4.099

$$$$

     RDKit          3D

  7  6  0  0  0  0  0  0  0  0999 V2000
   -1.6597   -0.0276   -1.4751 Cl  0  0  0  0  0  0  0  0  0  0  0  0
   -0.7880   -0.0780    0.0987 C   0  0  0  0  0  0  0  0  0  0  0  0
   -1.4592    1.2391    1.1255 Cl  0  0  0  0  0  0  0  0  0  0  0  0
    0.7534   -0.0241   -0.0463 C   0  0  0  0  0  0  0  0  0  0  0  0
    1.3537   -1.4215   -1.0227 Cl  0  0  0  0  0  0  0  0  0  0  0  0
    1.3348    1.4866   -0.8270 Cl  0  0  0  0  0  0  0  0  0  0  0  0
    1.5535   -0.1593    1.5686 Cl  0  0  0  0  0  0  0  0  0  0  0  0
  1  2  1  0
  2  3  1  0
  2  4  1  0
  4  5  1  0
  4  6  1  0
  4  7  1  0
M  END
>  <target>  (1072) 
-2.6

$$$$

     RDKit          3D

 16 16  0  0  0  0  0  0  0  0999 V2000
   -2.3459   -2.6959   -0.5031 C   0  0  0  0  0  0  0  0  0  0  0  0
   -2.7334   -1.4686    0.2984 C   0  0  0  0  0  0  0  0  0  0  0  0
   -1.7873   -0.4335    0.0097 O   0  0  0  0  0  0  0  0  0  0  0  0
   -1.9562    0.6893    0.7487 C   0  0  0  0  0  0  0  0  0  0  0  0
   -2.8691    0.9298    1.5205 O   0  0  0  0  0  0  0  0  0  0  0  0
   -0.9161    1.6698    0.3810 C   0  0  0  0  0  0  0  0  0  0  0  0
   -1.3391    2.9793    0.1080 C   0  0  0  0  0  0  0  0  0  0  0  0
   -0.4158    3.9461   -0.2938 C   0  0  0  0  0  0  0  0  0  0  0  0
    0.9326    3.6139   -0.4191 C   0  0  0  0  0  0  0  0  0  0  0  0
    1.3639    2.3177   -0.1295 C   0  0  0  0  0  0  0  0  0  0  0  0
    0.4408    1.3407    0.2774 C   0  0  0  0  0  0  0  0  0  0  0  0
    0.9321    0.0054    0.6734 C   0  0  0  0  0  0  0  0  0  0  0  0
    0.5754   -0.5842    1.6785 O   0  0  0  0  0  0  0  0  0  0  0  0
    1.8160   -0.4340   -0.2562 O   0  0  0  0  0  0  0  0  0  0  0  0
    2.3296   -1.7451    0.0065 C   0  0  0  0  0  0  0  0  0  0  0  0
    3.2785   -2.1147   -1.1167 C   0  0  0  0  0  0  0  0  0  0  0  0
  1  2  1  0
  2  3  1  0
  3  4  1  0
  4  5  2  0
  4  6  1  0
  6  7  2  0
  7  8  1  0
  8  9  2  0
  9 10  1  0
 10 11  2  0
 11 12  1  0
 12 13  2  0
 12 14  1  0
 14 15  1  0
 15 16  1  0
 11  6  1  0
M  END
>  <target>  (1073) 
-2.35

$$$$

     RDKit          3D

  5  4  0  0  0  0  0  0  0  0999 V2000
    0.5279   -1.3044    0.6371 C   0  0  0  0  0  0  0  0  0  0  0  0
   -0.1416   -0.2502   -0.2472 C   0  0  0  0  0  0  0  0  0  0  0  0
   -1.6305   -0.1523    0.0784 C   0  0  0  0  0  0  0  0  0  0  0  0
    0.5303    1.1167   -0.0915 C   0  0  0  0  0  0  0  0  0  0  0  0
    1.8852    1.0411   -0.5148 O   0  0  0  0  0  0  0  0  0  0  0  0
  1  2  1  0
  2  3  1  0
  2  4  1  0
  4  5  1  0
M  END
>  <target>  (1074) 
0.1

$$$$

     RDKit          3D

 10 10  0  0  0  0  0  0  0  0999 V2000
   -1.9143   -1.0272   -0.5920 C   0  0  0  0  0  0  0  0  0  0  0  0
   -1.6648    0.1656    0.3345 C   0  0  0  0  0  0  0  0  0  0  0  0
   -2.9413    1.0020    0.4527 C   0  0  0  0  0  0  0  0  0  0  0  0
   -0.5051    1.0508   -0.1627 C   0  0  0  0  0  0  0  0  0  0  0  0
    0.8446    0.3754   -0.1088 C   0  0  0  0  0  0  0  0  0  0  0  0
    1.4795    0.1529    1.1209 C   0  0  0  0  0  0  0  0  0  0  0  0
    2.7251   -0.4748    1.1718 C   0  0  0  0  0  0  0  0  0  0  0  0
    3.3482   -0.8857   -0.0049 C   0  0  0  0  0  0  0  0  0  0  0  0
    2.7266   -0.6688   -1.2331 C   0  0  0  0  0  0  0  0  0  0  0  0
    1.4810   -0.0409   -1.2858 C   0  0  0  0  0  0  0  0  0  0  0  0
  1  2  1  0
  2  3  1  0
  2  4  1  0
  4  5  1  0
  5  6  2  0
  6  7  1  0
  7  8  2  0
  8  9  1  0
  9 10  2  0
 10  5  1  0
M  END
>  <target>  (1075) 
-4.12

$$$$

     RDKit          3D

  3  2  0  0  0  0  0  0  0  0999 V2000
   -1.6997    1.0211   -0.0401 I   0  0  0  0  0  0  0  0  0  0  0  0
   -0.0006   -0.2469    0.0027 C   0  0  0  0  0  0  0  0  0  0  0  0
    1.7049    1.0130    0.0179 I   0  0  0  0  0  0  0  0  0  0  0  0
  1  2  1  0
  2  3  1  0
M  END
>  <target>  (1076) 
-2.34

$$$$

     RDKit          3D

  8  7  0  0  0  0  0  0  0  0999 V2000
    3.7963   -0.1648   -0.2748 C   0  0  0  0  0  0  0  0  0  0  0  0
    2.4589   -0.8084    0.0570 C   0  0  0  0  0  0  0  0  0  0  0  0
    1.2968    0.1577   -0.1897 C   0  0  0  0  0  0  0  0  0  0  0  0
   -0.0581   -0.4615    0.1769 C   0  0  0  0  0  0  0  0  0  0  0  0
   -0.2944   -1.6102   -0.6340 O   0  0  0  0  0  0  0  0  0  0  0  0
   -1.1978    0.5474   -0.0146 C   0  0  0  0  0  0  0  0  0  0  0  0
   -2.5533   -0.0256    0.4088 C   0  0  0  0  0  0  0  0  0  0  0  0
   -3.6644    1.0004    0.2488 C   0  0  0  0  0  0  0  0  0  0  0  0
  1  2  1  0
  2  3  1  0
  3  4  1  0
  4  5  1  0
  4  6  1  0
  6  7  1  0
  7  8  1  0
M  END
>  <target>  (1077) 
-1.4

$$$$

     RDKit          3D

  9  8  0  0  0  0  0  0  0  0999 V2000
   -4.0226    0.5423   -0.0724 C   0  0  0  0  0  0  0  0  0  0  0  0
   -2.7410    0.0992   -0.7601 C   0  0  0  0  0  0  0  0  0  0  0  0
   -1.5214    0.3153    0.1353 C   0  0  0  0  0  0  0  0  0  0  0  0
   -0.2365   -0.1309   -0.5589 C   0  0  0  0  0  0  0  0  0  0  0  0
    0.9857    0.0812    0.3277 C   0  0  0  0  0  0  0  0  0  0  0  0
    2.1418   -0.3611   -0.3962 O   0  0  0  0  0  0  0  0  0  0  0  0
    3.3117   -0.2264    0.2863 C   0  0  0  0  0  0  0  0  0  0  0  0
    3.4275    0.2244    1.4170 O   0  0  0  0  0  0  0  0  0  0  0  0
    4.4528   -0.7141   -0.5526 C   0  0  0  0  0  0  0  0  0  0  0  0
  1  2  1  0
  2  3  1  0
  3  4  1  0
  4  5  1  0
  5  6  1  0
  6  7  1  0
  7  8  2  0
  7  9  1  0
M  END
>  <target>  (1078) 
-1.89

$$$$

     RDKit          3D

 11 11  0  0  0  0  0  0  0  0999 V2000
    2.4566    0.3490   -0.4258 O   0  0  0  0  0  0  0  0  0  0  0  0
    1.1087    0.1892   -0.2030 C   0  0  0  0  0  0  0  0  0  0  0  0
    0.6126   -1.0325    0.2761 C   0  0  0  0  0  0  0  0  0  0  0  0
    1.7317   -2.3211    0.5763 Cl  0  0  0  0  0  0  0  0  0  0  0  0
   -0.7608   -1.1809    0.4982 C   0  0  0  0  0  0  0  0  0  0  0  0
   -1.4502   -2.6518    1.0865 Cl  0  0  0  0  0  0  0  0  0  0  0  0
   -1.6292   -0.1167    0.2432 C   0  0  0  0  0  0  0  0  0  0  0  0
   -1.1317    1.1001   -0.2344 C   0  0  0  0  0  0  0  0  0  0  0  0
   -2.2764    2.3637   -0.5229 Cl  0  0  0  0  0  0  0  0  0  0  0  0
    0.2415    1.2615   -0.4609 C   0  0  0  0  0  0  0  0  0  0  0  0
    0.8841    2.7584   -1.0522 Cl  0  0  0  0  0  0  0  0  0  0  0  0
  1  2  1  0
  2  3  2  0
  3  4  1  0
  3  5  1  0
  5  6  1  0
  5  7  2  0
  7  8  1  0
  8  9  1  0
  8 10  2  0
 10 11  1  0
 10  2  1  0
M  END
>  <target>  (1079) 
-3.37

$$$$

     RDKit          3D

  9  9  0  0  0  0  0  0  0  0999 V2000
   -3.3012    0.3151    0.3003 C   0  0  0  0  0  0  0  0  0  0  0  0
   -1.9012   -0.2474    0.1125 C   0  0  0  0  0  0  0  0  0  0  0  0
   -0.8427    0.8537    0.1857 C   0  0  0  0  0  0  0  0  0  0  0  0
    0.5488    0.3024    0.0001 C   0  0  0  0  0  0  0  0  0  0  0  0
    1.1067    0.1977   -1.2810 C   0  0  0  0  0  0  0  0  0  0  0  0
    2.3883   -0.3277   -1.4534 C   0  0  0  0  0  0  0  0  0  0  0  0
    3.1214   -0.7572   -0.3488 C   0  0  0  0  0  0  0  0  0  0  0  0
    2.5730   -0.6638    0.9290 C   0  0  0  0  0  0  0  0  0  0  0  0
    1.2915   -0.1386    1.1034 C   0  0  0  0  0  0  0  0  0  0  0  0
  1  2  1  0
  2  3  1  0
  3  4  1  0
  4  5  2  0
  5  6  1  0
  6  7  2  0
  7  8  1  0
  8  9  2  0
  9  4  1  0
M  END
>  <target>  (1080) 
-3.37

$$$$

     RDKit          3D

  8  7  0  0  0  0  0  0  0  0999 V2000
    1.1358   -0.1013    1.3805 F   0  0  0  0  0  0  0  0  0  0  0  0
    0.7690   -0.0333    0.0697 C   0  0  0  0  0  0  0  0  0  0  0  0
    1.3407   -1.1160   -0.5316 F   0  0  0  0  0  0  0  0  0  0  0  0
    1.4908    1.4351   -0.6463 Cl  0  0  0  0  0  0  0  0  0  0  0  0
   -0.7638   -0.0898   -0.0764 C   0  0  0  0  0  0  0  0  0  0  0  0
   -1.2400   -1.2754    0.4016 F   0  0  0  0  0  0  0  0  0  0  0  0
   -1.1296   -0.0461   -1.3885 F   0  0  0  0  0  0  0  0  0  0  0  0
   -1.6028    1.2268    0.7910 Cl  0  0  0  0  0  0  0  0  0  0  0  0
  1  2  1  0
  2  3  1  0
  2  4  1  0
  2  5  1  0
  5  6  1  0
  5  7  1  0
  5  8  1  0
M  END
>  <target>  (1081) 
-2.74

$$$$

     RDKit          3D

  5  4  0  0  0  0  0  0  0  0999 V2000
   -1.7195   -0.2383   -0.1559 C   0  0  0  0  0  0  0  0  0  0  0  0
   -0.3086   -0.3838    0.3154 C   0  0  0  0  0  0  0  0  0  0  0  0
    0.6719    0.4658   -0.0210 C   0  0  0  0  0  0  0  0  0  0  0  0
    2.0466    0.2654    0.4791 C   0  0  0  0  0  0  0  0  0  0  0  0
    2.9513    1.0342    0.1793 O   0  0  0  0  0  0  0  0  0  0  0  0
  1  2  1  0
  2  3  2  3
  3  4  1  0
  4  5  2  0
M  END
>  <target>  (1082) 
0.32

$$$$

     RDKit          3D

  8  7  0  0  0  0  0  0  0  0999 V2000
    2.3106   -0.1753   -1.0569 C   0  0  0  0  0  0  0  0  0  0  0  0
    1.1374   -0.2529   -0.2059 N   0  0  0  0  0  0  0  0  0  0  0  0
    1.4062   -0.5842    1.1866 C   0  0  0  0  0  0  0  0  0  0  0  0
    0.0758    0.5855   -0.5352 C   0  0  0  0  0  0  0  0  0  0  0  0
    0.1928    1.4901   -1.3621 O   0  0  0  0  0  0  0  0  0  0  0  0
   -1.1258    0.3419    0.1245 N   0  0  0  0  0  0  0  0  0  0  0  0
   -1.6139   -1.0212    0.2810 C   0  0  0  0  0  0  0  0  0  0  0  0
   -2.1584    1.3520   -0.0187 C   0  0  0  0  0  0  0  0  0  0  0  0
  1  2  1  0
  2  3  1  0
  2  4  1  0
  4  5  2  0
  4  6  1  0
  6  7  1  0
  6  8  1  0
M  END
>  <target>  (1083) 
0.94

$$$$

     RDKit          3D

 10 10  0  0  0  0  0  0  0  0999 V2000
    2.5927    1.2353    0.5084 C   0  0  0  0  0  0  0  0  0  0  0  0
    1.2653    0.5805    0.2411 C   0  0  0  0  0  0  0  0  0  0  0  0
    0.0855    1.3214    0.4143 C   0  0  0  0  0  0  0  0  0  0  0  0
   -1.1787    0.7582    0.1786 C   0  0  0  0  0  0  0  0  0  0  0  0
   -2.4093    1.5992    0.3803 C   0  0  0  0  0  0  0  0  0  0  0  0
   -1.2653   -0.5805   -0.2411 C   0  0  0  0  0  0  0  0  0  0  0  0
   -2.5927   -1.2353   -0.5084 C   0  0  0  0  0  0  0  0  0  0  0  0
   -0.0855   -1.3214   -0.4143 C   0  0  0  0  0  0  0  0  0  0  0  0
    1.1787   -0.7582   -0.1786 C   0  0  0  0  0  0  0  0  0  0  0  0
    2.4093   -1.5992   -0.3803 C   0  0  0  0  0  0  0  0  0  0  0  0
  1  2  1  0
  2  3  2  0
  3  4  1  0
  4  5  1  0
  4  6  2  0
  6  7  1  0
  6  8  1  0
  8  9  2  0
  9 10  1  0
  9  2  1  0
M  END
>  <target>  (1084) 
-4.59

$$$$

     RDKit          3D

 25 28  0  0  0  0  0  0  0  0999 V2000
    5.9870    1.7589   -0.4523 C   0  0  0  0  0  0  0  0  0  0  0  0
    5.1484    0.5598   -0.1298 C   0  0  0  0  0  0  0  0  0  0  0  0
    5.6032   -0.5447    0.1270 O   0  0  0  0  0  0  0  0  0  0  0  0
    3.8320    0.8957   -0.1843 O   0  0  0  0  0  0  0  0  0  0  0  0
    2.8473   -0.1062    0.1412 C   0  0  0  0  0  0  0  0  0  0  0  0
    2.9697   -1.3987   -0.7203 C   0  0  0  0  0  0  0  0  0  0  0  0
    1.5380   -1.8491   -1.0766 C   0  0  0  0  0  0  0  0  0  0  0  0
    0.6271   -0.9018   -0.3035 C   0  0  0  0  0  0  0  0  0  0  0  0
   -0.8156   -0.7186   -0.7832 C   0  0  0  0  0  0  0  0  0  0  0  0
   -1.5674   -2.0621   -0.8765 C   0  0  0  0  0  0  0  0  0  0  0  0
   -3.0387   -1.8718   -1.2563 C   0  0  0  0  0  0  0  0  0  0  0  0
   -3.6701   -0.8870   -0.3097 C   0  0  0  0  0  0  0  0  0  0  0  0
   -4.6692   -1.2392    0.5162 C   0  0  0  0  0  0  0  0  0  0  0  0
   -5.1289   -0.3189    1.5850 C   0  0  0  0  0  0  0  0  0  0  0  0
   -6.0653   -0.6517    2.3070 O   0  0  0  0  0  0  0  0  0  0  0  0
   -4.3532    0.9586    1.8040 C   0  0  0  0  0  0  0  0  0  0  0  0
   -3.8469    1.5012    0.4776 C   0  0  0  0  0  0  0  0  0  0  0  0
   -3.0049    0.4786   -0.3024 C   0  0  0  0  0  0  0  0  0  0  0  0
   -1.5446    0.2772    0.1830 C   0  0  0  0  0  0  0  0  0  0  0  0
   -0.7601    1.5999    0.3396 C   0  0  0  0  0  0  0  0  0  0  0  0
    0.7223    1.3878    0.7010 C   0  0  0  0  0  0  0  0  0  0  0  0
    1.4254    0.4206   -0.2715 C   0  0  0  0  0  0  0  0  0  0  0  0
    1.5187    1.1221   -1.6614 C   0  0  0  0  0  0  0  0  0  0  0  0
    2.9283   -0.4242    1.5897 C   0  0  0  0  0  0  0  0  0  0  0  0
    3.0152   -0.6860    2.7593 C   0  0  0  0  0  0  0  0  0  0  0  0
  1  2  1  0
  2  3  2  0
  2  4  1  0
  4  5  1  0
  5  6  1  0
  6  7  1  0
  7  8  1  0
  8  9  1  0
  9 10  1  0
 10 11  1  0
 11 12  1  0
 12 13  2  0
 13 14  1  0
 14 15  2  0
 14 16  1  0
 16 17  1  0
 17 18  1  0
 18 19  1  0
 19 20  1  0
 20 21  1  0
 21 22  1  0
 22 23  1  0
  5 24  1  0
 24 25  3  0
 18 12  1  0
 19  9  1  0
 22  5  1  0
 22  8  1  0
M  END
>  <target>  (1085) 
-4.8

$$$$

     RDKit          3D

 19 20  0  0  0  0  0  0  0  0999 V2000
   -2.3374   -2.4664    2.1247 C   0  0  0  0  0  0  0  0  0  0  0  0
   -2.1712   -2.1780    0.6464 C   0  0  0  0  0  0  0  0  0  0  0  0
   -1.8968   -0.7961    0.4829 O   0  0  0  0  0  0  0  0  0  0  0  0
   -1.1646   -0.2555   -0.8614 P   0  0  0  0  0  0  0  0  0  0  0  0
   -1.6210   -1.1909   -2.5117 S   0  0  0  0  0  0  0  0  0  0  0  0
   -1.6986    1.2791   -0.8036 O   0  0  0  0  0  0  0  0  0  0  0  0
   -3.0786    1.5416   -0.9928 C   0  0  0  0  0  0  0  0  0  0  0  0
   -3.3827    2.9244   -0.4536 C   0  0  0  0  0  0  0  0  0  0  0  0
    0.4631   -0.1041   -0.4919 N   0  0  0  0  0  0  0  0  0  0  0  0
    1.1772   -0.9313    0.3151 C   0  0  0  0  0  0  0  0  0  0  0  0
    0.8310   -1.9119    0.9432 O   0  0  0  0  0  0  0  0  0  0  0  0
    2.5572   -0.4557    0.2968 C   0  0  0  0  0  0  0  0  0  0  0  0
    3.6770   -0.9177    0.9604 C   0  0  0  0  0  0  0  0  0  0  0  0
    4.8814   -0.2479    0.7227 C   0  0  0  0  0  0  0  0  0  0  0  0
    4.9364    0.8487   -0.1627 C   0  0  0  0  0  0  0  0  0  0  0  0
    3.7878    1.2935   -0.8248 C   0  0  0  0  0  0  0  0  0  0  0  0
    2.6114    0.6169   -0.5691 C   0  0  0  0  0  0  0  0  0  0  0  0
    1.2658    0.8171   -1.0950 C   0  0  0  0  0  0  0  0  0  0  0  0
    1.0020    1.6555   -1.9340 O   0  0  0  0  0  0  0  0  0  0  0  0
  1  2  1  0
  2  3  1  0
  3  4  1  0
  4  5  2  0
  4  6  1  0
  6  7  1  0
  7  8  1  0
  4  9  1  0
  9 10  1  0
 10 11  2  0
 10 12  1  0
 12 13  2  0
 13 14  1  0
 14 15  2  0
 15 16  1  0
 16 17  2  0
 17 18  1  0
 18 19  2  0
 17 12  1  0
 18  9  1  0
M  END
>  <target>  (1086) 
-3.35

$$$$

     RDKit          3D

 16 17  0  0  0  0  0  0  0  0999 V2000
   -2.7834    0.2925    1.1382 C   0  0  0  0  0  0  0  0  0  0  0  0
   -4.1713    0.2893    0.9742 C   0  0  0  0  0  0  0  0  0  0  0  0
   -4.7225    0.0663   -0.2843 C   0  0  0  0  0  0  0  0  0  0  0  0
   -3.8852   -0.1508   -1.3757 C   0  0  0  0  0  0  0  0  0  0  0  0
   -2.4960   -0.1476   -1.2115 C   0  0  0  0  0  0  0  0  0  0  0  0
   -1.9327    0.0696    0.0470 C   0  0  0  0  0  0  0  0  0  0  0  0
   -0.5439    0.0961    0.2967 N   0  0  0  0  0  0  0  0  0  0  0  0
    0.4727   -0.1928   -0.5947 C   0  0  0  0  0  0  0  0  0  0  0  0
    0.3467   -0.6179   -1.7401 O   0  0  0  0  0  0  0  0  0  0  0  0
    1.8614   -0.0282   -0.0752 C   0  0  0  0  0  0  0  0  0  0  0  0
    2.8951   -0.8179   -0.6022 C   0  0  0  0  0  0  0  0  0  0  0  0
    2.7023   -1.7309   -1.6054 O   0  0  0  0  0  0  0  0  0  0  0  0
    4.1958   -0.7034   -0.1161 C   0  0  0  0  0  0  0  0  0  0  0  0
    4.4847    0.2219    0.8860 C   0  0  0  0  0  0  0  0  0  0  0  0
    3.4747    1.0378    1.3948 C   0  0  0  0  0  0  0  0  0  0  0  0
    2.1670    0.9191    0.9147 C   0  0  0  0  0  0  0  0  0  0  0  0
  1  2  2  0
  2  3  1  0
  3  4  2  0
  4  5  1  0
  5  6  2  0
  6  7  1  0
  7  8  1  0
  8  9  2  0
  8 10  1  0
 10 11  2  0
 11 12  1  0
 11 13  1  0
 13 14  2  0
 14 15  1  0
 15 16  2  0
  6  1  1  0
 16 10  1  0
M  END
>  <target>  (1087) 
-3.59

$$$$

     RDKit          3D

 12 11  0  0  0  0  0  0  0  0999 V2000
   -2.0242    2.0978    0.9516 C   0  0  0  0  0  0  0  0  0  0  0  0
   -1.0447    0.9510    1.1562 C   0  0  0  0  0  0  0  0  0  0  0  0
   -0.8978    0.1306   -0.0610 N   0  0  0  0  0  0  0  0  0  0  0  0
   -1.8572   -0.9844   -0.1588 C   0  0  0  0  0  0  0  0  0  0  0  0
   -1.3061   -2.2587    0.4647 C   0  0  0  0  0  0  0  0  0  0  0  0
    0.0465    0.3863   -1.0744 C   0  0  0  0  0  0  0  0  0  0  0  0
    0.1845   -0.4793   -2.5173 S   0  0  0  0  0  0  0  0  0  0  0  0
    1.1275    1.7636   -0.8151 S   0  0  0  0  0  0  0  0  0  0  0  0
    2.7018    0.9008   -0.5276 C   0  0  0  0  0  0  0  0  0  0  0  0
    2.6988    0.1196    0.7556 C   0  0  0  0  0  0  0  0  0  0  0  0
    2.9224    1.0360    2.2108 Cl  0  0  0  0  0  0  0  0  0  0  0  0
    2.6076   -1.2149    0.8344 C   0  0  0  0  0  0  0  0  0  0  0  0
  1  2  1  0
  2  3  1  0
  3  4  1  0
  4  5  1  0
  3  6  1  0
  6  7  2  0
  6  8  1  0
  8  9  1  0
  9 10  1  0
 10 11  1  0
 10 12  2  0
M  END
>  <target>  (1088) 
-3.39

$$$$

     RDKit          3D

  3  2  0  0  0  0  0  0  0  0999 V2000
    1.5476    1.3474   -0.3561 Cl  0  0  0  0  0  0  0  0  0  0  0  0
    0.7095   -0.1825   -0.0190 C   0  0  0  0  0  0  0  0  0  0  0  0
   -0.7873    0.0366    0.0510 C   0  0  0  0  0  0  0  0  0  0  0  0
  1  2  1  0
  2  3  1  0
M  END
>  <target>  (1089) 
-1.06

$$$$

     RDKit          3D

 20 20  0  0  0  0  0  0  0  0999 V2000
   -2.9315   -3.5410   -0.1882 C   0  0  0  0  0  0  0  0  0  0  0  0
   -1.8573   -2.5892    0.2769 C   0  0  0  0  0  0  0  0  0  0  0  0
   -1.0362   -2.9335    1.1192 O   0  0  0  0  0  0  0  0  0  0  0  0
   -1.9587   -1.3493   -0.3297 N   0  0  0  0  0  0  0  0  0  0  0  0
   -1.1271   -0.2185   -0.1427 C   0  0  0  0  0  0  0  0  0  0  0  0
   -0.0193   -0.2364    0.7132 C   0  0  0  0  0  0  0  0  0  0  0  0
    0.7948    0.8917    0.8757 C   0  0  0  0  0  0  0  0  0  0  0  0
    1.9505    0.7731    1.7099 N   0  0  0  0  0  0  0  0  0  0  0  0
    3.4444    0.4341    0.9433 S   0  0  0  0  0  0  0  0  0  0  0  0
    3.6695    1.4399   -0.0798 O   0  0  0  0  0  0  0  0  0  0  0  0
    4.3847    0.3255    2.0482 O   0  0  0  0  0  0  0  0  0  0  0  0
    3.2155   -1.2457    0.1648 C   0  0  0  0  0  0  0  0  0  0  0  0
    2.6631   -2.1272    1.0472 F   0  0  0  0  0  0  0  0  0  0  0  0
    4.3969   -1.7869   -0.2459 F   0  0  0  0  0  0  0  0  0  0  0  0
    2.3984   -1.2111   -0.9248 F   0  0  0  0  0  0  0  0  0  0  0  0
    0.4993    2.0791    0.2022 C   0  0  0  0  0  0  0  0  0  0  0  0
    1.3044    3.3391    0.3591 C   0  0  0  0  0  0  0  0  0  0  0  0
   -0.6011    2.0956   -0.6674 C   0  0  0  0  0  0  0  0  0  0  0  0
   -1.4177    0.9645   -0.8508 C   0  0  0  0  0  0  0  0  0  0  0  0
   -2.5800    1.0747   -1.8021 C   0  0  0  0  0  0  0  0  0  0  0  0
  1  2  1  0
  2  3  2  0
  2  4  1  0
  4  5  1  0
  5  6  2  0
  6  7  1  0
  7  8  1  0
  8  9  1  0
  9 10  2  0
  9 11  2  0
  9 12  1  0
 12 13  1  0
 12 14  1  0
 12 15  1  0
  7 16  2  0
 16 17  1  0
 16 18  1  0
 18 19  2  0
 19 20  1  0
 19  5  1  0
M  END
>  <target>  (1090) 
-3.24

$$$$

     RDKit          3D

 21 23  0  0  0  0  0  0  0  0999 V2000
   -2.0044   -0.5607    2.0101 O   0  0  0  0  0  0  0  0  0  0  0  0
   -1.4522   -1.0202    1.0136 C   0  0  0  0  0  0  0  0  0  0  0  0
   -0.7216   -2.3172    1.0834 C   0  0  0  0  0  0  0  0  0  0  0  0
    0.0244   -2.7507    2.1128 C   0  0  0  0  0  0  0  0  0  0  0  0
    0.3701   -2.0586    3.3373 C   0  0  0  0  0  0  0  0  0  0  0  0
    1.1201   -0.9501    3.4581 C   0  0  0  0  0  0  0  0  0  0  0  0
    1.6913   -0.2185    2.3279 C   0  0  0  0  0  0  0  0  0  0  0  0
    2.8987   -0.6369    1.7309 C   0  0  0  0  0  0  0  0  0  0  0  0
    3.3645   -0.0242    0.5627 C   0  0  0  0  0  0  0  0  0  0  0  0
    2.5857    0.9695    0.0102 C   0  0  0  0  0  0  0  0  0  0  0  0
    2.8309    1.6183   -1.1594 O   0  0  0  0  0  0  0  0  0  0  0  0
    1.6617    2.4606   -1.2512 C   0  0  0  0  0  0  0  0  0  0  0  0
    0.7427    2.2926   -0.1512 O   0  0  0  0  0  0  0  0  0  0  0  0
    1.4142    1.3812    0.5992 C   0  0  0  0  0  0  0  0  0  0  0  0
    0.9634    0.8410    1.7793 C   0  0  0  0  0  0  0  0  0  0  0  0
   -1.5095   -0.4145   -0.2360 N   0  0  0  0  0  0  0  0  0  0  0  0
   -2.3379    0.7795   -0.3899 C   0  0  0  0  0  0  0  0  0  0  0  0
   -2.9741    0.8346   -1.7739 C   0  0  0  0  0  0  0  0  0  0  0  0
   -1.9352    0.8074   -2.8958 C   0  0  0  0  0  0  0  0  0  0  0  0
   -0.5826    0.2575   -2.4475 C   0  0  0  0  0  0  0  0  0  0  0  0
   -0.7279   -0.8397   -1.3986 C   0  0  0  0  0  0  0  0  0  0  0  0
  1  2  2  0
  2  3  1  0
  3  4  2  3
  4  5  1  0
  5  6  2  3
  6  7  1  0
  7  8  2  0
  8  9  1  0
  9 10  2  0
 10 11  1  0
 11 12  1  0
 12 13  1  0
 13 14  1  0
 14 15  2  0
  2 16  1  0
 16 17  1  0
 17 18  1  0
 18 19  1  0
 19 20  1  0
 20 21  1  0
 14 10  1  0
 15  7  1  0
 21 16  1  0
M  END
>  <target>  (1091) 
-3.46

$$$$

     RDKit          3D

  5  4  0  0  0  0  0  0  0  0999 V2000
   -2.0405   -0.4409    0.1692 C   0  0  0  0  0  0  0  0  0  0  0  0
   -0.9780    0.4537   -0.4498 C   0  0  0  0  0  0  0  0  0  0  0  0
    0.0881    0.8053    0.5474 C   0  0  0  0  0  0  0  0  0  0  0  0
    1.3689    0.4025    0.5549 C   0  0  0  0  0  0  0  0  0  0  0  0
    2.0427   -0.5210   -0.4074 C   0  0  0  0  0  0  0  0  0  0  0  0
  1  2  1  0
  2  3  1  0
  3  4  2  0
  4  5  1  0
M  END
>  <target>  (1092) 
-2.54

$$$$

     RDKit          3D

 14 13  0  0  0  0  0  0  0  0999 V2000
    4.7094    0.3094    0.4955 C   0  0  0  0  0  0  0  0  0  0  0  0
    3.2879    0.4175    0.3456 N   0  0  0  0  0  0  0  0  0  0  0  0
    2.5889    1.5569    0.6441 C   0  0  0  0  0  0  0  0  0  0  0  0
    3.1080    2.6277    0.9377 O   0  0  0  0  0  0  0  0  0  0  0  0
    1.2160    1.4035    0.6012 O   0  0  0  0  0  0  0  0  0  0  0  0
    0.8306    0.0634    0.3545 N   0  0  0  0  0  0  0  0  0  0  0  0
   -0.4641   -0.0526    0.2222 C   0  0  0  0  0  0  0  0  0  0  0  0
   -1.4255    1.1329    0.3023 C   0  0  0  0  0  0  0  0  0  0  0  0
   -1.7173    1.7966   -1.3658 S   0  0  0  0  0  0  0  0  0  0  0  0
   -2.6717    3.2624   -0.9084 C   0  0  0  0  0  0  0  0  0  0  0  0
   -1.0069   -1.4773   -0.0912 C   0  0  0  0  0  0  0  0  0  0  0  0
   -0.3261   -2.4857    0.8565 C   0  0  0  0  0  0  0  0  0  0  0  0
   -2.5244   -1.6190    0.0927 C   0  0  0  0  0  0  0  0  0  0  0  0
   -0.6428   -1.8304   -1.5422 C   0  0  0  0  0  0  0  0  0  0  0  0
  1  2  1  0
  2  3  1  0
  3  4  2  0
  3  5  1  0
  5  6  1  0
  6  7  2  3
  7  8  1  0
  8  9  1  0
  9 10  1  0
  7 11  1  0
 11 12  1  0
 11 13  1  0
 11 14  1  0
M  END
>  <target>  (1093) 
-1.62

$$$$

     RDKit          3D

 16 17  0  0  0  0  0  0  0  0999 V2000
   -4.8339    0.7222    0.5161 O   0  0  0  0  0  0  0  0  0  0  0  0
   -3.6292    0.5660    0.3469 C   0  0  0  0  0  0  0  0  0  0  0  0
   -2.7949    0.3067    1.3887 N   0  0  0  0  0  0  0  0  0  0  0  0
   -1.6433   -0.4177    1.2436 C   0  0  0  0  0  0  0  0  0  0  0  0
   -1.2545   -1.1416    2.1561 O   0  0  0  0  0  0  0  0  0  0  0  0
   -0.8977   -0.2141   -0.0758 C   0  0  0  0  0  0  0  0  0  0  0  0
   -0.1941    1.1680   -0.0345 C   0  0  0  0  0  0  0  0  0  0  0  0
    0.8101    1.4203    1.0932 C   0  0  0  0  0  0  0  0  0  0  0  0
    2.0488    0.5306    1.1617 C   0  0  0  0  0  0  0  0  0  0  0  0
    2.7835    0.3495   -0.1656 C   0  0  0  0  0  0  0  0  0  0  0  0
    2.5330   -0.9945   -0.8502 C   0  0  0  0  0  0  0  0  0  0  0  0
    1.1256   -1.2207   -1.4046 C   0  0  0  0  0  0  0  0  0  0  0  0
    0.0435   -1.4182   -0.3344 C   0  0  0  0  0  0  0  0  0  0  0  0
   -1.9387   -0.1410   -1.1981 C   0  0  0  0  0  0  0  0  0  0  0  0
   -1.7844   -0.6163   -2.3199 O   0  0  0  0  0  0  0  0  0  0  0  0
   -3.0850    0.5446   -0.8991 N   0  0  0  0  0  0  0  0  0  0  0  0
  1  2  2  0
  2  3  1  0
  3  4  1  0
  4  5  2  0
  4  6  1  0
  6  7  1  0
  7  8  1  0
  8  9  1  0
  9 10  1  0
 10 11  1  0
 11 12  1  0
 12 13  1  0
  6 14  1  0
 14 15  2  0
 14 16  1  0
 13  6  1  0
 16  2  1  0
M  END
>  <target>  (1094) 
-2.9819999999999998

$$$$

     RDKit          3D

 19 19  0  0  0  0  0  0  0  0999 V2000
   -1.1010   -0.8056   -0.0183 C   0  0  0  0  0  0  0  0  0  0  0  0
   -2.3808   -1.5857    0.3304 C   0  0  0  0  0  0  0  0  0  0  0  0
   -2.1880   -3.1190    0.3627 C   0  0  0  0  0  0  0  0  0  0  0  0
   -3.4741   -1.2859   -0.7179 C   0  0  0  0  0  0  0  0  0  0  0  0
   -2.8840   -1.1604    1.7268 C   0  0  0  0  0  0  0  0  0  0  0  0
   -1.1269    0.6076   -0.0855 C   0  0  0  0  0  0  0  0  0  0  0  0
    0.0076    1.3928   -0.3998 C   0  0  0  0  0  0  0  0  0  0  0  0
   -0.1066    2.9264   -0.4552 C   0  0  0  0  0  0  0  0  0  0  0  0
   -1.1452    3.3322   -1.5232 C   0  0  0  0  0  0  0  0  0  0  0  0
    1.2179    3.6382   -0.8132 C   0  0  0  0  0  0  0  0  0  0  0  0
   -0.5551    3.4639    0.9211 C   0  0  0  0  0  0  0  0  0  0  0  0
    1.2062    0.7150   -0.6488 C   0  0  0  0  0  0  0  0  0  0  0  0
    1.2524   -0.6757   -0.5686 C   0  0  0  0  0  0  0  0  0  0  0  0
    2.4580   -1.3163   -0.8762 O   0  0  0  0  0  0  0  0  0  0  0  0
    3.1523   -1.7725    0.2323 C   0  0  0  0  0  0  0  0  0  0  0  0
    2.8186   -1.6483    1.4025 O   0  0  0  0  0  0  0  0  0  0  0  0
    4.3022   -2.3863   -0.1842 N   0  0  0  0  0  0  0  0  0  0  0  0
    5.2995   -2.8433    0.7439 C   0  0  0  0  0  0  0  0  0  0  0  0
    0.1209   -1.4366   -0.2765 C   0  0  0  0  0  0  0  0  0  0  0  0
  1  2  1  0
  2  3  1  0
  2  4  1  0
  2  5  1  0
  1  6  2  0
  6  7  1  0
  7  8  1  0
  8  9  1  0
  8 10  1  0
  8 11  1  0
  7 12  2  0
 12 13  1  0
 13 14  1  0
 14 15  1  0
 15 16  2  0
 15 17  1  0
 17 18  1  0
 13 19  2  0
 19  1  1  0
M  END
>  <target>  (1095) 
-4.24

$$$$

     RDKit          3D

 21 23  0  0  0  0  0  0  0  0999 V2000
    4.5584   -2.0467   -2.2523 O   0  0  0  0  0  0  0  0  0  0  0  0
    3.8901   -1.1688   -1.4512 C   0  0  0  0  0  0  0  0  0  0  0  0
    4.5717   -0.2333   -0.6774 C   0  0  0  0  0  0  0  0  0  0  0  0
    3.8433    0.6481    0.1181 C   0  0  0  0  0  0  0  0  0  0  0  0
    4.5624    1.5596    0.8439 O   0  0  0  0  0  0  0  0  0  0  0  0
    2.4451    0.5861    0.1439 C   0  0  0  0  0  0  0  0  0  0  0  0
    1.6438    1.5396    0.9323 C   0  0  0  0  0  0  0  0  0  0  0  0
    2.2055    2.3857    1.6242 O   0  0  0  0  0  0  0  0  0  0  0  0
    0.1522    1.4607    0.7839 C   0  0  0  0  0  0  0  0  0  0  0  0
   -0.2250    0.0062    0.5380 C   0  0  0  0  0  0  0  0  0  0  0  0
    0.4113   -0.4960   -0.6493 O   0  0  0  0  0  0  0  0  0  0  0  0
    1.7752   -0.3706   -0.6210 C   0  0  0  0  0  0  0  0  0  0  0  0
    2.4996   -1.2409   -1.4335 C   0  0  0  0  0  0  0  0  0  0  0  0
   -1.7289   -0.1316    0.3839 C   0  0  0  0  0  0  0  0  0  0  0  0
   -2.3660    0.1048   -0.8498 C   0  0  0  0  0  0  0  0  0  0  0  0
   -3.7549   -0.0020   -0.9758 C   0  0  0  0  0  0  0  0  0  0  0  0
   -4.5111   -0.3397    0.1384 C   0  0  0  0  0  0  0  0  0  0  0  0
   -5.8716   -0.4589    0.0805 O   0  0  0  0  0  0  0  0  0  0  0  0
   -3.8929   -0.5674    1.3640 C   0  0  0  0  0  0  0  0  0  0  0  0
   -4.6443   -0.8933    2.4568 O   0  0  0  0  0  0  0  0  0  0  0  0
   -2.5148   -0.4659    1.4984 C   0  0  0  0  0  0  0  0  0  0  0  0
  1  2  1  0
  2  3  2  0
  3  4  1  0
  4  5  1  0
  4  6  2  0
  6  7  1  0
  7  8  2  0
  7  9  1  0
  9 10  1  0
 10 11  1  0
 11 12  1  0
 12 13  2  0
 10 14  1  0
 14 15  2  0
 15 16  1  0
 16 17  2  0
 17 18  1  0
 17 19  1  0
 19 20  1  0
 19 21  2  0
 12  6  1  0
 13  2  1  0
 21 14  1  0
M  END
>  <target>  (1096) 
-3.62

$$$$

     RDKit          3D

 14 15  0  0  0  0  0  0  0  0999 V2000
    0.0165   -2.0752    1.3587 O   0  0  0  0  0  0  0  0  0  0  0  0
    0.0085   -1.0646    0.6603 C   0  0  0  0  0  0  0  0  0  0  0  0
    1.2984   -0.4914    0.1994 C   0  0  0  0  0  0  0  0  0  0  0  0
    2.4108   -0.5888    1.0435 C   0  0  0  0  0  0  0  0  0  0  0  0
    3.6424   -0.0714    0.6398 C   0  0  0  0  0  0  0  0  0  0  0  0
    3.7685    0.5319   -0.6114 C   0  0  0  0  0  0  0  0  0  0  0  0
    2.6676    0.6114   -1.4647 C   0  0  0  0  0  0  0  0  0  0  0  0
    1.4330    0.0953   -1.0649 C   0  0  0  0  0  0  0  0  0  0  0  0
   -1.2910   -0.4448    0.2968 C   0  0  0  0  0  0  0  0  0  0  0  0
   -2.3959   -1.2807    0.0976 C   0  0  0  0  0  0  0  0  0  0  0  0
   -3.6360   -0.7335   -0.2344 C   0  0  0  0  0  0  0  0  0  0  0  0
   -3.7779    0.6487   -0.3554 C   0  0  0  0  0  0  0  0  0  0  0  0
   -2.6843    1.4869   -0.1363 C   0  0  0  0  0  0  0  0  0  0  0  0
   -1.4413    0.9438    0.1960 C   0  0  0  0  0  0  0  0  0  0  0  0
  1  2  2  0
  2  3  1  0
  3  4  2  0
  4  5  1  0
  5  6  2  0
  6  7  1  0
  7  8  2  0
  2  9  1  0
  9 10  2  0
 10 11  1  0
 11 12  2  0
 12 13  1  0
 13 14  2  0
  8  3  1  0
 14  9  1  0
M  END
>  <target>  (1097) 
-3.12

$$$$

     RDKit          3D

 20 19  0  0  0  0  0  0  0  0999 V2000
    8.2047    3.0371    0.6965 C   0  0  0  0  0  0  0  0  0  0  0  0
    6.8993    2.9578    1.4722 C   0  0  0  0  0  0  0  0  0  0  0  0
    6.6916    1.6200    2.1861 C   0  0  0  0  0  0  0  0  0  0  0  0
    6.6670    0.3817    1.2847 C   0  0  0  0  0  0  0  0  0  0  0  0
    5.5508    0.4129    0.2376 C   0  0  0  0  0  0  0  0  0  0  0  0
    5.4967   -0.8987   -0.5497 C   0  0  0  0  0  0  0  0  0  0  0  0
    4.4810   -0.8814   -1.6963 C   0  0  0  0  0  0  0  0  0  0  0  0
    3.0253   -0.6084   -1.3015 C   0  0  0  0  0  0  0  0  0  0  0  0
    2.4528   -1.6459   -0.3327 C   0  0  0  0  0  0  0  0  0  0  0  0
    0.9955   -1.3750    0.0560 C   0  0  0  0  0  0  0  0  0  0  0  0
    0.0125   -1.5414   -1.1050 C   0  0  0  0  0  0  0  0  0  0  0  0
   -1.4351   -1.3789   -0.6323 C   0  0  0  0  0  0  0  0  0  0  0  0
   -2.4181   -1.5372   -1.7945 C   0  0  0  0  0  0  0  0  0  0  0  0
   -3.8860   -1.4981   -1.3601 C   0  0  0  0  0  0  0  0  0  0  0  0
   -4.3206   -0.1395   -0.8058 C   0  0  0  0  0  0  0  0  0  0  0  0
   -5.8204   -0.1214   -0.4966 C   0  0  0  0  0  0  0  0  0  0  0  0
   -6.2535    1.2346    0.0652 C   0  0  0  0  0  0  0  0  0  0  0  0
   -7.7645    1.3473    0.2866 C   0  0  0  0  0  0  0  0  0  0  0  0
   -8.2911    0.4107    1.3746 C   0  0  0  0  0  0  0  0  0  0  0  0
   -9.7719    0.6416    1.6356 C   0  0  0  0  0  0  0  0  0  0  0  0
  1  2  1  0
  2  3  1  0
  3  4  1  0
  4  5  1  0
  5  6  1  0
  6  7  1  0
  7  8  1  0
  8  9  1  0
  9 10  1  0
 10 11  1  0
 11 12  1  0
 12 13  1  0
 13 14  1  0
 14 15  1  0
 15 16  1  0
 16 17  1  0
 17 18  1  0
 18 19  1  0
 19 20  1  0
M  END
>  <target>  (1098) 
-8.172

$$$$

     RDKit          3D

 14 15  0  0  0  0  0  0  0  0999 V2000
    0.5360   -0.5465    0.2815 N   0  0  0  0  0  0  0  0  0  0  0  0
   -0.4709   -0.3997   -0.6357 N   0  0  0  0  0  0  0  0  0  0  0  0
   -1.8271   -0.3135   -0.2499 C   0  0  0  0  0  0  0  0  0  0  0  0
   -2.8325   -0.4844   -1.2109 C   0  0  0  0  0  0  0  0  0  0  0  0
   -4.1814   -0.3544   -0.8681 C   0  0  0  0  0  0  0  0  0  0  0  0
   -4.5405   -0.0277    0.4374 C   0  0  0  0  0  0  0  0  0  0  0  0
   -3.5515    0.1805    1.3955 C   0  0  0  0  0  0  0  0  0  0  0  0
   -2.2039    0.0490    1.0494 C   0  0  0  0  0  0  0  0  0  0  0  0
    1.8571   -0.1224    0.0159 C   0  0  0  0  0  0  0  0  0  0  0  0
    2.9051   -0.5703    0.8312 C   0  0  0  0  0  0  0  0  0  0  0  0
    4.2146   -0.1274    0.6233 C   0  0  0  0  0  0  0  0  0  0  0  0
    4.4881    0.7889   -0.3893 C   0  0  0  0  0  0  0  0  0  0  0  0
    3.4515    1.2708   -1.1849 C   0  0  0  0  0  0  0  0  0  0  0  0
    2.1436    0.8253   -0.9747 C   0  0  0  0  0  0  0  0  0  0  0  0
  1  2  1  0
  2  3  1  0
  3  4  2  0
  4  5  1  0
  5  6  2  0
  6  7  1  0
  7  8  2  0
  1  9  1  0
  9 10  2  0
 10 11  1  0
 11 12  2  0
 12 13  1  0
 13 14  2  0
  8  3  1  0
 14  9  1  0
M  END
>  <target>  (1099) 
-2.92

$$$$

     RDKit          3D

  7  6  0  0  0  0  0  0  0  0999 V2000
    2.3518   -1.1059   -0.1874 C   0  0  0  0  0  0  0  0  0  0  0  0
    0.9632   -0.9009   -0.7765 C   0  0  0  0  0  0  0  0  0  0  0  0
   -0.0448   -0.2625    0.2062 C   0  0  0  0  0  0  0  0  0  0  0  0
   -1.4372   -0.2465   -0.4647 C   0  0  0  0  0  0  0  0  0  0  0  0
   -2.5559    0.2320    0.4502 C   0  0  0  0  0  0  0  0  0  0  0  0
    0.3964    1.1343    0.6708 C   0  0  0  0  0  0  0  0  0  0  0  0
    0.4952    2.0229   -0.4330 O   0  0  0  0  0  0  0  0  0  0  0  0
  1  2  1  0
  2  3  1  0
  3  4  1  0
  4  5  1  0
  3  6  1  0
  6  7  1  0
M  END
>  <target>  (1100) 
-1.17

$$$$

     RDKit          3D

  7  7  0  0  0  0  0  0  0  0999 V2000
    2.2703   -0.0132    0.1214 O   0  0  0  0  0  0  0  0  0  0  0  0
    0.9090    0.0171    0.0450 C   0  0  0  0  0  0  0  0  0  0  0  0
    0.1474   -1.1331    0.1869 C   0  0  0  0  0  0  0  0  0  0  0  0
   -1.2281   -1.0017    0.0939 C   0  0  0  0  0  0  0  0  0  0  0  0
   -1.8601    0.1724   -0.1250 N   0  0  0  0  0  0  0  0  0  0  0  0
   -1.0795    1.2680   -0.2572 C   0  0  0  0  0  0  0  0  0  0  0  0
    0.3012    1.2415   -0.1805 C   0  0  0  0  0  0  0  0  0  0  0  0
  1  2  1  0
  2  3  2  0
  3  4  1  0
  4  5  2  0
  5  6  1  0
  6  7  2  0
  7  2  1  0
M  END
>  <target>  (1101) 
1.02

$$$$

     RDKit          3D

  4  3  0  0  0  0  0  0  0  0999 V2000
    1.5510    1.1308   -0.7978 Cl  0  0  0  0  0  0  0  0  0  0  0  0
    0.6153   -0.1963   -0.2538 C   0  0  0  0  0  0  0  0  0  0  0  0
   -0.6183   -0.1229    0.2423 C   0  0  0  0  0  0  0  0  0  0  0  0
   -1.5285    1.3140    0.4406 Cl  0  0  0  0  0  0  0  0  0  0  0  0
  1  2  1  0
  2  3  2  0
  3  4  1  0
M  END
>  <target>  (1102) 
-1.3

$$$$

     RDKit          3D

  6  6  0  0  0  0  0  0  0  0999 V2000
    2.1067    0.3714   -0.0868 C   0  0  0  0  0  0  0  0  0  0  0  0
    0.6410    0.4459    0.3034 C   0  0  0  0  0  0  0  0  0  0  0  0
    0.1327   -0.8245    0.9776 C   0  0  0  0  0  0  0  0  0  0  0  0
   -1.3848   -0.7218    0.8634 C   0  0  0  0  0  0  0  0  0  0  0  0
   -1.6598    0.1792   -0.3418 C   0  0  0  0  0  0  0  0  0  0  0  0
   -0.2944    0.5752   -0.8945 C   0  0  0  0  0  0  0  0  0  0  0  0
  1  2  1  0
  2  3  1  0
  3  4  1  0
  4  5  1  0
  5  6  1  0
  6  2  1  0
M  END
>  <target>  (1103) 
-3.3

$$$$

     RDKit          3D

  7  6  0  0  0  0  0  0  0  0999 V2000
   -2.1523   -0.2143    1.1969 C   0  0  0  0  0  0  0  0  0  0  0  0
   -1.0499   -0.5545    0.1900 C   0  0  0  0  0  0  0  0  0  0  0  0
   -1.6163   -0.5046   -1.2297 C   0  0  0  0  0  0  0  0  0  0  0  0
    0.1437    0.4042    0.3811 C   0  0  0  0  0  0  0  0  0  0  0  0
    1.3568    0.0962   -0.5051 C   0  0  0  0  0  0  0  0  0  0  0  0
    2.5052    1.0546   -0.2141 C   0  0  0  0  0  0  0  0  0  0  0  0
    1.7949   -1.2356   -0.2546 O   0  0  0  0  0  0  0  0  0  0  0  0
  1  2  1  0
  2  3  1  0
  2  4  1  0
  4  5  1  0
  5  6  1  0
  5  7  1  0
M  END
>  <target>  (1104) 
-0.8

$$$$

     RDKit          3D

 19 21  0  0  0  0  0  0  0  0999 V2000
   -0.1013    0.2133    1.9754 O   0  0  0  0  0  0  0  0  0  0  0  0
    1.0245    0.5469    1.2658 C   0  0  0  0  0  0  0  0  0  0  0  0
    1.6394    1.7485    1.6323 C   0  0  0  0  0  0  0  0  0  0  0  0
    2.8284    2.1398    1.0221 C   0  0  0  0  0  0  0  0  0  0  0  0
    3.3984    1.3491    0.0275 C   0  0  0  0  0  0  0  0  0  0  0  0
    4.6486    1.6838   -0.5061 N   0  0  0  0  0  0  0  0  0  0  0  0
    2.8162    0.1076   -0.2652 C   0  0  0  0  0  0  0  0  0  0  0  0
    1.6056   -0.3083    0.3231 C   0  0  0  0  0  0  0  0  0  0  0  0
    1.0448   -1.5855   -0.0002 N   0  0  0  0  0  0  0  0  0  0  0  0
    1.9480   -2.6329   -0.4672 C   0  0  0  0  0  0  0  0  0  0  0  0
   -0.3231   -1.8988   -0.0145 C   0  0  0  0  0  0  0  0  0  0  0  0
   -0.7372   -3.0211   -0.3201 O   0  0  0  0  0  0  0  0  0  0  0  0
   -1.3548   -0.8651    0.2241 C   0  0  0  0  0  0  0  0  0  0  0  0
   -2.5480   -0.9325   -0.5148 C   0  0  0  0  0  0  0  0  0  0  0  0
   -3.5808   -0.0081   -0.3026 C   0  0  0  0  0  0  0  0  0  0  0  0
   -4.8576   -0.1074   -1.0830 C   0  0  0  0  0  0  0  0  0  0  0  0
   -3.4291    0.9624    0.6931 C   0  0  0  0  0  0  0  0  0  0  0  0
   -2.2529    1.0237    1.4410 C   0  0  0  0  0  0  0  0  0  0  0  0
   -1.2164    0.1205    1.1913 C   0  0  0  0  0  0  0  0  0  0  0  0
  1  2  1  0
  2  3  2  0
  3  4  1  0
  4  5  2  0
  5  6  1  0
  5  7  1  0
  7  8  2  0
  8  9  1  0
  9 10  1  0
  9 11  1  0
 11 12  2  0
 11 13  1  0
 13 14  2  0
 14 15  1  0
 15 16  1  0
 15 17  2  0
 17 18  1  0
 18 19  2  0
  8  2  1  0
 19  1  1  0
 19 13  1  0
M  END
>  <target>  (1105) 
-3.928

$$$$

     RDKit          3D

  6  5  0  0  0  0  0  0  0  0999 V2000
   -0.1742   -1.3441    0.7890 C   0  0  0  0  0  0  0  0  0  0  0  0
   -0.1744    0.0110    0.0617 C   0  0  0  0  0  0  0  0  0  0  0  0
   -0.8425   -0.1617   -1.3128 C   0  0  0  0  0  0  0  0  0  0  0  0
   -0.9752    1.0290    0.8889 C   0  0  0  0  0  0  0  0  0  0  0  0
    1.2687    0.5269   -0.1070 C   0  0  0  0  0  0  0  0  0  0  0  0
    2.0511   -0.3842   -0.8683 O   0  0  0  0  0  0  0  0  0  0  0  0
  1  2  1  0
  2  3  1  0
  2  4  1  0
  2  5  1  0
  5  6  1  0
M  END
>  <target>  (1106) 
-0.4

$$$$

     RDKit          3D

 20 21  0  0  0  0  0  0  0  0999 V2000
   -2.2852   -1.8728    1.4400 C   0  0  0  0  0  0  0  0  0  0  0  0
   -1.6873   -0.8926    0.4130 C   0  0  0  0  0  0  0  0  0  0  0  0
   -2.7972    0.0631   -0.0393 C   0  0  0  0  0  0  0  0  0  0  0  0
   -1.1581   -1.6981   -0.7810 C   0  0  0  0  0  0  0  0  0  0  0  0
   -0.5163   -0.1235    1.0646 C   0  0  0  0  0  0  0  0  0  0  0  0
   -0.0785   -0.4527    2.1740 O   0  0  0  0  0  0  0  0  0  0  0  0
    0.1231    1.0365    0.2853 C   0  0  0  0  0  0  0  0  0  0  0  0
    1.5514    1.0729    0.4166 O   0  0  0  0  0  0  0  0  0  0  0  0
    2.1496    0.1542   -0.4002 C   0  0  0  0  0  0  0  0  0  0  0  0
    2.3024    0.4104   -1.7625 C   0  0  0  0  0  0  0  0  0  0  0  0
    2.9337   -0.5349   -2.5725 C   0  0  0  0  0  0  0  0  0  0  0  0
    3.4208   -1.7157   -2.0101 C   0  0  0  0  0  0  0  0  0  0  0  0
    4.1947   -2.8809   -3.0111 Cl  0  0  0  0  0  0  0  0  0  0  0  0
    3.2911   -1.9550   -0.6420 C   0  0  0  0  0  0  0  0  0  0  0  0
    2.6611   -1.0104    0.1693 C   0  0  0  0  0  0  0  0  0  0  0  0
   -0.3874    2.2960    0.8148 N   0  0  0  0  0  0  0  0  0  0  0  0
   -0.1692    2.8371    2.0452 C   0  0  0  0  0  0  0  0  0  0  0  0
   -0.8124    3.9780    2.1421 N   0  0  0  0  0  0  0  0  0  0  0  0
   -1.4108    4.1019    0.9220 C   0  0  0  0  0  0  0  0  0  0  0  0
   -1.1877    3.0949    0.0723 N   0  0  0  0  0  0  0  0  0  0  0  0
  1  2  1  0
  2  3  1  0
  2  4  1  0
  2  5  1  0
  5  6  2  0
  5  7  1  0
  7  8  1  0
  8  9  1  0
  9 10  2  0
 10 11  1  0
 11 12  2  0
 12 13  1  0
 12 14  1  0
 14 15  2  0
  7 16  1  0
 16 17  1  0
 17 18  2  0
 18 19  1  0
 19 20  2  0
 15  9  1  0
 20 16  1  0
M  END
>  <target>  (1107) 
-3.61

$$$$

     RDKit          3D

 17 18  0  0  0  0  0  0  0  0999 V2000
    6.5494   -0.1090   -0.4330 C   0  0  0  0  0  0  0  0  0  0  0  0
    5.1040   -0.0590   -0.1527 C   0  0  0  0  0  0  0  0  0  0  0  0
    4.0030   -0.6871   -0.6765 C   0  0  0  0  0  0  0  0  0  0  0  0
    2.9100   -0.1717    0.0654 C   0  0  0  0  0  0  0  0  0  0  0  0
    3.3347    0.7165    0.9829 N   0  0  0  0  0  0  0  0  0  0  0  0
    4.7092    0.7815    0.8396 O   0  0  0  0  0  0  0  0  0  0  0  0
    1.4961   -0.5103   -0.0874 C   0  0  0  0  0  0  0  0  0  0  0  0
    1.0899   -1.3196   -0.9204 O   0  0  0  0  0  0  0  0  0  0  0  0
    0.6538    0.1614    0.7931 N   0  0  0  0  0  0  0  0  0  0  0  0
   -0.7247   -0.1534    0.8550 N   0  0  0  0  0  0  0  0  0  0  0  0
   -1.5163    0.8301    0.1058 C   0  0  0  0  0  0  0  0  0  0  0  0
   -2.9742    0.4397    0.0810 C   0  0  0  0  0  0  0  0  0  0  0  0
   -3.8024    0.7123    1.1795 C   0  0  0  0  0  0  0  0  0  0  0  0
   -5.1467    0.3373    1.1635 C   0  0  0  0  0  0  0  0  0  0  0  0
   -5.6746   -0.3197    0.0536 C   0  0  0  0  0  0  0  0  0  0  0  0
   -4.8585   -0.6067   -1.0392 C   0  0  0  0  0  0  0  0  0  0  0  0
   -3.5136   -0.2328   -1.0252 C   0  0  0  0  0  0  0  0  0  0  0  0
  1  2  1  0
  2  3  2  0
  3  4  1  0
  4  5  2  0
  5  6  1  0
  4  7  1  0
  7  8  2  0
  7  9  1  0
  9 10  1  0
 10 11  1  0
 11 12  1  0
 12 13  2  0
 13 14  1  0
 14 15  2  0
 15 16  1  0
 16 17  2  0
  6  2  1  0
 17 12  1  0
M  END
>  <target>  (1108) 
-2.461

$$$$

     RDKit          3D

  3  2  0  0  0  0  0  0  0  0999 V2000
   -1.1245   -0.0448    0.1538 C   0  0  0  0  0  0  0  0  0  0  0  0
    0.2873    0.4421    0.1608 C   0  0  0  0  0  0  0  0  0  0  0  0
    1.3242   -0.2525   -0.3230 C   0  0  0  0  0  0  0  0  0  0  0  0
  1  2  1  0
  2  3  2  0
M  END
>  <target>  (1109) 
-1.08

$$$$

     RDKit          3D

 17 18  0  0  0  0  0  0  0  0999 V2000
    0.9517    2.4430   -0.5860 O   0  0  0  0  0  0  0  0  0  0  0  0
    1.6762    1.2999   -0.3839 C   0  0  0  0  0  0  0  0  0  0  0  0
    2.9346    1.3704    0.2152 C   0  0  0  0  0  0  0  0  0  0  0  0
    3.6624    0.1999    0.4315 C   0  0  0  0  0  0  0  0  0  0  0  0
    3.1265   -1.0279    0.0501 C   0  0  0  0  0  0  0  0  0  0  0  0
    4.0230   -2.4712    0.3198 Cl  0  0  0  0  0  0  0  0  0  0  0  0
    1.8684   -1.0959   -0.5491 C   0  0  0  0  0  0  0  0  0  0  0  0
    1.1252    0.0743   -0.7793 C   0  0  0  0  0  0  0  0  0  0  0  0
   -0.2408   -0.0195   -1.4203 C   0  0  0  0  0  0  0  0  0  0  0  0
   -1.3607   -0.2621   -0.4343 C   0  0  0  0  0  0  0  0  0  0  0  0
   -1.7708   -1.5838   -0.1784 C   0  0  0  0  0  0  0  0  0  0  0  0
   -2.8146   -1.8470    0.7108 C   0  0  0  0  0  0  0  0  0  0  0  0
   -3.2973   -3.4730    1.0015 Cl  0  0  0  0  0  0  0  0  0  0  0  0
   -3.4696   -0.8050    1.3593 C   0  0  0  0  0  0  0  0  0  0  0  0
   -3.0706    0.5090    1.1212 C   0  0  0  0  0  0  0  0  0  0  0  0
   -2.0198    0.7734    0.2421 C   0  0  0  0  0  0  0  0  0  0  0  0
   -1.6925    2.0900    0.0873 O   0  0  0  0  0  0  0  0  0  0  0  0
  1  2  1  0
  2  3  2  0
  3  4  1  0
  4  5  2  0
  5  6  1  0
  5  7  1  0
  7  8  2  0
  8  9  1  0
  9 10  1  0
 10 11  2  0
 11 12  1  0
 12 13  1  0
 12 14  2  0
 14 15  1  0
 15 16  2  0
 16 17  1  0
  8  2  1  0
 16 10  1  0
M  END
>  <target>  (1110) 
-3.9530000000000003

$$$$

     RDKit          3D

 22 23  0  0  0  0  0  0  0  0999 V2000
    6.4474   -2.5275    1.2884 C   0  0  0  0  0  0  0  0  0  0  0  0
    6.0114   -1.8929   -0.0180 C   0  0  0  0  0  0  0  0  0  0  0  0
    4.6867   -1.3763    0.1565 O   0  0  0  0  0  0  0  0  0  0  0  0
    4.1687   -0.7779   -0.9508 C   0  0  0  0  0  0  0  0  0  0  0  0
    4.7658   -0.6718   -2.0106 O   0  0  0  0  0  0  0  0  0  0  0  0
    2.9135   -0.3417   -0.6412 N   0  0  0  0  0  0  0  0  0  0  0  0
    1.9863    0.3178   -1.4646 C   0  0  0  0  0  0  0  0  0  0  0  0
    2.2224    0.6321   -2.8062 C   0  0  0  0  0  0  0  0  0  0  0  0
    1.2469    1.2892   -3.5657 C   0  0  0  0  0  0  0  0  0  0  0  0
    0.0262    1.6345   -2.9918 C   0  0  0  0  0  0  0  0  0  0  0  0
   -0.2128    1.3066   -1.6610 C   0  0  0  0  0  0  0  0  0  0  0  0
   -1.4340    1.7265   -1.1084 O   0  0  0  0  0  0  0  0  0  0  0  0
   -2.2129    0.7772   -0.4480 C   0  0  0  0  0  0  0  0  0  0  0  0
   -1.9304   -0.4081   -0.3511 O   0  0  0  0  0  0  0  0  0  0  0  0
   -3.3149    1.4169    0.0563 N   0  0  0  0  0  0  0  0  0  0  0  0
   -4.3774    0.8742    0.7985 C   0  0  0  0  0  0  0  0  0  0  0  0
   -5.3853    1.7555    1.2110 C   0  0  0  0  0  0  0  0  0  0  0  0
   -6.4747    1.2942    1.9542 C   0  0  0  0  0  0  0  0  0  0  0  0
   -6.5675   -0.0533    2.2908 C   0  0  0  0  0  0  0  0  0  0  0  0
   -5.5708   -0.9368    1.8839 C   0  0  0  0  0  0  0  0  0  0  0  0
   -4.4793   -0.4755    1.1405 C   0  0  0  0  0  0  0  0  0  0  0  0
    0.7607    0.6704   -0.8887 C   0  0  0  0  0  0  0  0  0  0  0  0
  1  2  1  0
  2  3  1  0
  3  4  1  0
  4  5  2  0
  4  6  1  0
  6  7  1  0
  7  8  2  0
  8  9  1  0
  9 10  2  0
 10 11  1  0
 11 12  1  0
 12 13  1  0
 13 14  2  0
 13 15  1  0
 15 16  1  0
 16 17  2  0
 17 18  1  0
 18 19  2  0
 19 20  1  0
 20 21  2  0
 11 22  2  0
 21 16  1  0
 22  7  1  0
M  END
>  <target>  (1111) 
-4.632

$$$$

     RDKit          3D

 16 18  0  0  0  0  0  0  0  0999 V2000
    0.1804    2.2879    1.3657 O   0  0  0  0  0  0  0  0  0  0  0  0
    0.0976    1.2379    0.7390 C   0  0  0  0  0  0  0  0  0  0  0  0
    1.3137    0.5730    0.2295 C   0  0  0  0  0  0  0  0  0  0  0  0
    2.5688    1.1488    0.4658 C   0  0  0  0  0  0  0  0  0  0  0  0
    3.7239    0.5275   -0.0120 C   0  0  0  0  0  0  0  0  0  0  0  0
    3.6297   -0.6672   -0.7251 C   0  0  0  0  0  0  0  0  0  0  0  0
    2.3803   -1.2429   -0.9619 C   0  0  0  0  0  0  0  0  0  0  0  0
    1.2196   -0.6212   -0.4834 C   0  0  0  0  0  0  0  0  0  0  0  0
   -0.0976   -1.2379   -0.7390 C   0  0  0  0  0  0  0  0  0  0  0  0
   -0.1804   -2.2879   -1.3657 O   0  0  0  0  0  0  0  0  0  0  0  0
   -1.3137   -0.5730   -0.2295 C   0  0  0  0  0  0  0  0  0  0  0  0
   -2.5688   -1.1488   -0.4658 C   0  0  0  0  0  0  0  0  0  0  0  0
   -3.7239   -0.5275    0.0120 C   0  0  0  0  0  0  0  0  0  0  0  0
   -3.6297    0.6672    0.7251 C   0  0  0  0  0  0  0  0  0  0  0  0
   -2.3803    1.2429    0.9619 C   0  0  0  0  0  0  0  0  0  0  0  0
   -1.2196    0.6212    0.4834 C   0  0  0  0  0  0  0  0  0  0  0  0
  1  2  2  0
  2  3  1  0
  3  4  2  0
  4  5  1  0
  5  6  2  0
  6  7  1  0
  7  8  2  0
  8  9  1  0
  9 10  2  0
  9 11  1  0
 11 12  2  0
 12 13  1  0
 13 14  2  0
 14 15  1  0
 15 16  2  0
 16  2  1  0
  8  3  1  0
 16 11  1  0
M  END
>  <target>  (1112) 
-5.19

$$$$

     RDKit          3D

  9  8  0  0  0  0  0  0  0  0999 V2000
    4.5396   -0.4329   -0.4726 C   0  0  0  0  0  0  0  0  0  0  0  0
    3.3192   -0.1070    0.3736 C   0  0  0  0  0  0  0  0  0  0  0  0
    2.0278   -0.2325   -0.4344 C   0  0  0  0  0  0  0  0  0  0  0  0
    0.8026    0.0962    0.4203 C   0  0  0  0  0  0  0  0  0  0  0  0
   -0.4902   -0.0292   -0.3884 C   0  0  0  0  0  0  0  0  0  0  0  0
   -1.7165    0.3018    0.4692 C   0  0  0  0  0  0  0  0  0  0  0  0
   -3.0198    0.2173   -0.3307 C   0  0  0  0  0  0  0  0  0  0  0  0
   -4.2160    0.6220    0.5204 C   0  0  0  0  0  0  0  0  0  0  0  0
   -3.2070   -1.1218   -0.7798 O   0  0  0  0  0  0  0  0  0  0  0  0
  1  2  1  0
  2  3  1  0
  3  4  1  0
  4  5  1  0
  5  6  1  0
  6  7  1  0
  7  8  1  0
  7  9  1  0
M  END
>  <target>  (1113) 
-2.09

$$$$

     RDKit          3D

 18 19  0  0  0  0  0  0  0  0999 V2000
   -1.9924    2.3214   -1.2706 C   0  0  0  0  0  0  0  0  0  0  0  0
   -2.3430    1.0951   -0.4663 C   0  0  0  0  0  0  0  0  0  0  0  0
   -1.4512    0.1268   -0.1581 C   0  0  0  0  0  0  0  0  0  0  0  0
   -0.0613    0.1290   -0.6948 C   0  0  0  0  0  0  0  0  0  0  0  0
    0.1341    0.4668   -1.8585 O   0  0  0  0  0  0  0  0  0  0  0  0
    0.9074   -0.2388    0.2180 N   0  0  0  0  0  0  0  0  0  0  0  0
    2.3020   -0.3132    0.0122 C   0  0  0  0  0  0  0  0  0  0  0  0
    3.0803   -0.7476    1.0940 C   0  0  0  0  0  0  0  0  0  0  0  0
    4.4692   -0.8487    0.9804 C   0  0  0  0  0  0  0  0  0  0  0  0
    5.0943   -0.5158   -0.2176 C   0  0  0  0  0  0  0  0  0  0  0  0
    4.3299   -0.0835   -1.2985 C   0  0  0  0  0  0  0  0  0  0  0  0
    2.9392    0.0176   -1.1847 C   0  0  0  0  0  0  0  0  0  0  0  0
   -1.9101   -1.1777    0.8662 S   0  0  0  0  0  0  0  0  0  0  0  0
   -0.9945   -1.2194    1.9968 O   0  0  0  0  0  0  0  0  0  0  0  0
   -2.1281   -2.3716    0.0712 O   0  0  0  0  0  0  0  0  0  0  0  0
   -3.4813   -0.6815    1.4970 C   0  0  0  0  0  0  0  0  0  0  0  0
   -4.2557   -0.1005    0.3500 C   0  0  0  0  0  0  0  0  0  0  0  0
   -3.6643    1.1317   -0.0582 O   0  0  0  0  0  0  0  0  0  0  0  0
  1  2  1  0
  2  3  2  0
  3  4  1  0
  4  5  2  0
  4  6  1  0
  6  7  1  0
  7  8  2  0
  8  9  1  0
  9 10  2  0
 10 11  1  0
 11 12  2  0
  3 13  1  0
 13 14  2  0
 13 15  2  0
 13 16  1  0
 16 17  1  0
 17 18  1  0
 18  2  1  0
 12  7  1  0
M  END
>  <target>  (1114) 
-2.281

$$$$

     RDKit          3D

 10 10  0  0  0  0  0  0  0  0999 V2000
    3.7796    0.5584   -0.2605 C   0  0  0  0  0  0  0  0  0  0  0  0
    2.7290   -0.4122    0.2551 C   0  0  0  0  0  0  0  0  0  0  0  0
    1.3139    0.0956   -0.0207 C   0  0  0  0  0  0  0  0  0  0  0  0
    0.2614   -0.8853    0.5004 C   0  0  0  0  0  0  0  0  0  0  0  0
   -1.1392   -0.3937    0.2334 C   0  0  0  0  0  0  0  0  0  0  0  0
   -1.7972    0.4188    1.1663 C   0  0  0  0  0  0  0  0  0  0  0  0
   -3.0871    0.8869    0.9111 C   0  0  0  0  0  0  0  0  0  0  0  0
   -3.7288    0.5514   -0.2797 C   0  0  0  0  0  0  0  0  0  0  0  0
   -3.0806   -0.2506   -1.2172 C   0  0  0  0  0  0  0  0  0  0  0  0
   -1.7907   -0.7196   -0.9636 C   0  0  0  0  0  0  0  0  0  0  0  0
  1  2  1  0
  2  3  1  0
  3  4  1  0
  4  5  1  0
  5  6  2  0
  6  7  1  0
  7  8  2  0
  8  9  1  0
  9 10  2  0
 10  5  1  0
M  END
>  <target>  (1115) 
-4.06

$$$$

     RDKit          3D

  8  8  0  0  0  0  0  0  0  0999 V2000
    2.3591    0.1820    0.0478 O   0  0  0  0  0  0  0  0  0  0  0  0
    1.1440    0.0884    0.0046 C   0  0  0  0  0  0  0  0  0  0  0  0
    0.4549   -1.0825   -0.0258 N   0  0  0  0  0  0  0  0  0  0  0  0
   -0.8758   -0.8424   -0.0207 C   0  0  0  0  0  0  0  0  0  0  0  0
   -1.7890   -1.6362   -0.0167 O   0  0  0  0  0  0  0  0  0  0  0  0
   -0.9949    0.6980   -0.0080 C   0  0  0  0  0  0  0  0  0  0  0  0
   -2.0193    1.3418    0.0080 O   0  0  0  0  0  0  0  0  0  0  0  0
    0.2831    1.1398   -0.0074 N   0  0  0  0  0  0  0  0  0  0  0  0
  1  2  2  0
  2  3  1  0
  3  4  1  0
  4  5  2  0
  4  6  1  0
  6  7  2  0
  6  8  1  0
  8  2  1  0
M  END
>  <target>  (1116) 
-0.4

$$$$

     RDKit          3D

 27 28  0  0  0  0  0  0  0  0999 V2000
   -1.8457   -3.0786   -0.1441 C   0  0  0  0  0  0  0  0  0  0  0  0
   -1.9118   -2.3841    1.0877 O   0  0  0  0  0  0  0  0  0  0  0  0
   -0.5134   -2.1085    1.8663 P   0  0  0  0  0  0  0  0  0  0  0  0
    0.2259   -3.6754    2.7545 S   0  0  0  0  0  0  0  0  0  0  0  0
    0.3868   -1.4125    0.6926 O   0  0  0  0  0  0  0  0  0  0  0  0
    1.6976   -1.0033    1.0364 C   0  0  0  0  0  0  0  0  0  0  0  0
   -0.9027   -0.8971    2.8826 O   0  0  0  0  0  0  0  0  0  0  0  0
   -1.3144    0.3321    2.4561 C   0  0  0  0  0  0  0  0  0  0  0  0
   -0.4896    1.4175    2.7436 C   0  0  0  0  0  0  0  0  0  0  0  0
   -0.7616    2.6583    2.1708 C   0  0  0  0  0  0  0  0  0  0  0  0
   -1.8608    2.7992    1.3150 C   0  0  0  0  0  0  0  0  0  0  0  0
   -1.8569    4.1344    0.0960 S   0  0  0  0  0  0  0  0  0  0  0  0
   -0.7196    3.2773   -1.0171 C   0  0  0  0  0  0  0  0  0  0  0  0
   -1.1951    2.1930   -1.7643 C   0  0  0  0  0  0  0  0  0  0  0  0
   -0.3099    1.2128   -2.2096 C   0  0  0  0  0  0  0  0  0  0  0  0
    1.0428    1.3283   -1.9140 C   0  0  0  0  0  0  0  0  0  0  0  0
    1.9412    0.3176   -2.1067 O   0  0  0  0  0  0  0  0  0  0  0  0
    1.6822   -1.2441   -1.7317 P   0  0  0  0  0  0  0  0  0  0  0  0
    3.2838   -2.3494   -1.7063 S   0  0  0  0  0  0  0  0  0  0  0  0
    0.5745   -1.6894   -2.8342 O   0  0  0  0  0  0  0  0  0  0  0  0
    0.9629   -1.7502   -4.1934 C   0  0  0  0  0  0  0  0  0  0  0  0
    0.7873   -1.2229   -0.3630 O   0  0  0  0  0  0  0  0  0  0  0  0
    1.4311   -0.8064    0.8265 C   0  0  0  0  0  0  0  0  0  0  0  0
    1.5400    2.4925   -1.3257 C   0  0  0  0  0  0  0  0  0  0  0  0
    0.6566    3.4691   -0.8664 C   0  0  0  0  0  0  0  0  0  0  0  0
   -2.7705    1.7461    1.1658 C   0  0  0  0  0  0  0  0  0  0  0  0
   -2.4951    0.5064    1.7423 C   0  0  0  0  0  0  0  0  0  0  0  0
  1  2  1  0
  2  3  1  0
  3  4  2  0
  3  5  1  0
  5  6  1  0
  3  7  1  0
  7  8  1  0
  8  9  2  0
  9 10  1  0
 10 11  2  0
 11 12  1  0
 12 13  1  0
 13 14  2  0
 14 15  1  0
 15 16  2  0
 16 17  1  0
 17 18  1  0
 18 19  2  0
 18 20  1  0
 20 21  1  0
 18 22  1  0
 22 23  1  0
 16 24  1  0
 24 25  2  0
 11 26  1  0
 26 27  2  0
 27  8  1  0
 25 13  1  0
M  END
>  <target>  (1117) 
-6.237

$$$$

     RDKit          3D

 22 24  0  0  0  0  0  0  0  0999 V2000
    5.0974   -0.5537    1.5879 N   0  0  0  0  0  0  0  0  0  0  0  0
    3.6137   -0.9275    2.2785 S   0  0  0  0  0  0  0  0  0  0  0  0
    3.6524   -0.4817    3.6501 O   0  0  0  0  0  0  0  0  0  0  0  0
    3.3960   -2.3167    1.9412 O   0  0  0  0  0  0  0  0  0  0  0  0
    2.4748    0.0680    1.3686 C   0  0  0  0  0  0  0  0  0  0  0  0
    1.4697   -0.5784    0.6254 C   0  0  0  0  0  0  0  0  0  0  0  0
    0.5180    0.1534   -0.1101 C   0  0  0  0  0  0  0  0  0  0  0  0
    0.5943    1.5561   -0.0628 C   0  0  0  0  0  0  0  0  0  0  0  0
    1.5924    2.1987    0.6771 C   0  0  0  0  0  0  0  0  0  0  0  0
    2.5379    1.4606    1.3960 C   0  0  0  0  0  0  0  0  0  0  0  0
    3.7283    2.3630    2.2614 Cl  0  0  0  0  0  0  0  0  0  0  0  0
   -0.5772   -0.5503   -0.8977 C   0  0  0  0  0  0  0  0  0  0  0  0
   -0.2611   -1.9015   -1.1359 O   0  0  0  0  0  0  0  0  0  0  0  0
   -0.7745    0.0189   -2.1977 N   0  0  0  0  0  0  0  0  0  0  0  0
   -2.0398    0.5343   -2.3679 C   0  0  0  0  0  0  0  0  0  0  0  0
   -2.4461    1.1624   -3.3232 O   0  0  0  0  0  0  0  0  0  0  0  0
   -2.8049    0.1983   -1.1632 C   0  0  0  0  0  0  0  0  0  0  0  0
   -4.1328    0.4453   -0.8736 C   0  0  0  0  0  0  0  0  0  0  0  0
   -4.6086    0.0034    0.3617 C   0  0  0  0  0  0  0  0  0  0  0  0
   -3.7560   -0.6647    1.2616 C   0  0  0  0  0  0  0  0  0  0  0  0
   -2.4128   -0.8998    0.9441 C   0  0  0  0  0  0  0  0  0  0  0  0
   -1.9423   -0.4540   -0.2806 C   0  0  0  0  0  0  0  0  0  0  0  0
  1  2  1  0
  2  3  2  0
  2  4  2  0
  2  5  1  0
  5  6  2  0
  6  7  1  0
  7  8  2  0
  8  9  1  0
  9 10  2  0
 10 11  1  0
  7 12  1  0
 12 13  1  0
 12 14  1  0
 14 15  1  0
 15 16  2  0
 15 17  1  0
 17 18  2  0
 18 19  1  0
 19 20  2  0
 20 21  1  0
 21 22  2  0
 10  5  1  0
 22 12  1  0
 22 17  1  0
M  END
>  <target>  (1118) 
-3.451

$$$$

     RDKit          3D

  8  7  0  0  0  0  0  0  0  0999 V2000
   -1.3965   -1.5178    0.0409 C   0  0  0  0  0  0  0  0  0  0  0  0
   -1.3487   -0.0161    0.3315 C   0  0  0  0  0  0  0  0  0  0  0  0
   -2.6251    0.6610   -0.1630 C   0  0  0  0  0  0  0  0  0  0  0  0
   -0.1152    0.6369   -0.3048 C   0  0  0  0  0  0  0  0  0  0  0  0
    1.0677    0.0653    0.2719 O   0  0  0  0  0  0  0  0  0  0  0  0
    2.2308    0.5579   -0.2345 C   0  0  0  0  0  0  0  0  0  0  0  0
    2.3224    1.4143   -1.1024 O   0  0  0  0  0  0  0  0  0  0  0  0
    3.3988   -0.1046    0.4292 C   0  0  0  0  0  0  0  0  0  0  0  0
  1  2  1  0
  2  3  1  0
  2  4  1  0
  4  5  1  0
  5  6  1  0
  6  7  2  0
  6  8  1  0
M  END
>  <target>  (1119) 
-1.21

$$$$

     RDKit          3D

  7  6  0  0  0  0  0  0  0  0999 V2000
    1.5261   -0.9614    0.9972 C   0  0  0  0  0  0  0  0  0  0  0  0
    0.8229   -0.4604   -0.2733 C   0  0  0  0  0  0  0  0  0  0  0  0
    1.7355    0.5711   -0.9538 C   0  0  0  0  0  0  0  0  0  0  0  0
   -0.6439    0.0477   -0.0316 C   0  0  0  0  0  0  0  0  0  0  0  0
   -1.2974    0.4511   -1.3716 C   0  0  0  0  0  0  0  0  0  0  0  0
   -0.7013    1.2612    0.9153 C   0  0  0  0  0  0  0  0  0  0  0  0
   -1.5065   -1.0795    0.5771 C   0  0  0  0  0  0  0  0  0  0  0  0
  1  2  1  0
  2  3  1  0
  2  4  1  0
  4  5  1  0
  4  6  1  0
  4  7  1  0
M  END
>  <target>  (1120) 
-4.36

$$$$

     RDKit          3D

 19 20  0  0  0  0  0  0  0  0999 V2000
   -5.1454   -0.6454    0.9863 Cl  0  0  0  0  0  0  0  0  0  0  0  0
   -3.4729   -0.3760    0.6340 C   0  0  0  0  0  0  0  0  0  0  0  0
   -2.5804   -1.3908    0.9856 C   0  0  0  0  0  0  0  0  0  0  0  0
   -1.2172   -1.2459    0.7324 C   0  0  0  0  0  0  0  0  0  0  0  0
   -0.7185   -0.0819    0.1224 C   0  0  0  0  0  0  0  0  0  0  0  0
   -1.6294    0.9423   -0.2313 C   0  0  0  0  0  0  0  0  0  0  0  0
   -1.0163    2.3875   -0.9888 Cl  0  0  0  0  0  0  0  0  0  0  0  0
   -3.0072    0.7975    0.0235 C   0  0  0  0  0  0  0  0  0  0  0  0
   -4.1255    2.0550   -0.4118 Cl  0  0  0  0  0  0  0  0  0  0  0  0
    0.7373    0.0259   -0.1273 C   0  0  0  0  0  0  0  0  0  0  0  0
    1.2941   -0.4228   -1.3420 C   0  0  0  0  0  0  0  0  0  0  0  0
    0.3171   -1.1362   -2.5817 Cl  0  0  0  0  0  0  0  0  0  0  0  0
    2.6615   -0.3123   -1.5954 C   0  0  0  0  0  0  0  0  0  0  0  0
    3.5079    0.2485   -0.6397 C   0  0  0  0  0  0  0  0  0  0  0  0
    5.1887    0.3421   -1.0392 Cl  0  0  0  0  0  0  0  0  0  0  0  0
    2.9948    0.7029    0.5823 C   0  0  0  0  0  0  0  0  0  0  0  0
    4.0608    1.3923    1.7692 Cl  0  0  0  0  0  0  0  0  0  0  0  0
    1.6124    0.5898    0.8348 C   0  0  0  0  0  0  0  0  0  0  0  0
    0.9543    1.1444    2.3529 Cl  0  0  0  0  0  0  0  0  0  0  0  0
  1  2  1  0
  2  3  2  0
  3  4  1  0
  4  5  2  0
  5  6  1  0
  6  7  1  0
  6  8  2  0
  8  9  1  0
  5 10  1  0
 10 11  2  0
 11 12  1  0
 11 13  1  0
 13 14  2  0
 14 15  1  0
 14 16  1  0
 16 17  1  0
 16 18  2  0
 18 19  1  0
  8  2  1  0
 18 10  1  0
M  END
>  <target>  (1121) 
-7.66

$$$$

     RDKit          3D

 10 10  0  0  0  0  0  0  0  0999 V2000
    3.4291   -0.9069    0.3101 N   0  0  0  0  0  0  0  0  0  0  0  0
    2.2976   -0.6699    0.2166 C   0  0  0  0  0  0  0  0  0  0  0  0
    0.8919   -0.4041    0.1046 C   0  0  0  0  0  0  0  0  0  0  0  0
   -0.0071   -1.4764    0.2102 C   0  0  0  0  0  0  0  0  0  0  0  0
   -1.3820   -1.2582    0.1066 C   0  0  0  0  0  0  0  0  0  0  0  0
   -1.8689    0.0301   -0.1028 C   0  0  0  0  0  0  0  0  0  0  0  0
   -0.9819    1.1027   -0.2090 C   0  0  0  0  0  0  0  0  0  0  0  0
    0.4017    0.8928   -0.1062 C   0  0  0  0  0  0  0  0  0  0  0  0
    1.2804    2.0215   -0.2208 C   0  0  0  0  0  0  0  0  0  0  0  0
    1.9724    2.9474   -0.3164 N   0  0  0  0  0  0  0  0  0  0  0  0
  1  2  3  0
  2  3  1  0
  3  4  2  0
  4  5  1  0
  5  6  2  0
  6  7  1  0
  7  8  2  0
  8  9  1  0
  9 10  3  0
  8  3  1  0
M  END
>  <target>  (1122) 
-2.38

$$$$

     RDKit          3D

 10 10  0  0  0  0  0  0  0  0999 V2000
    2.4270   -0.7644   -0.0122 C   0  0  0  0  0  0  0  0  0  0  0  0
    1.0745   -0.1138    0.0016 C   0  0  0  0  0  0  0  0  0  0  0  0
    0.9541    1.2662    0.2167 C   0  0  0  0  0  0  0  0  0  0  0  0
   -0.3025    1.8753    0.2620 C   0  0  0  0  0  0  0  0  0  0  0  0
   -1.4578    1.1104    0.1031 C   0  0  0  0  0  0  0  0  0  0  0  0
   -1.3448   -0.2711   -0.0974 C   0  0  0  0  0  0  0  0  0  0  0  0
   -0.0854   -0.8868   -0.1436 C   0  0  0  0  0  0  0  0  0  0  0  0
   -2.5574   -1.0832   -0.2572 N   0  0  0  0  0  0  0  0  0  0  0  0
   -3.6517   -0.5027   -0.2090 O   0  0  0  0  0  0  0  0  0  0  0  0
   -2.4175   -2.3026   -0.4312 O   0  0  0  0  0  0  0  0  0  0  0  0
  1  2  1  0
  2  3  2  0
  3  4  1  0
  4  5  2  0
  5  6  1  0
  6  7  2  0
  6  8  1  0
  8  9  1  0
  8 10  2  0
  7  2  1  0
M  CHG  2   8   1   9  -1
M  END
>  <target>  (1123) 
-2.44

$$$$

     RDKit          3D

  7  6  0  0  0  0  0  0  0  0999 V2000
   -1.4940    0.6132   -0.8344 F   0  0  0  0  0  0  0  0  0  0  0  0
   -0.7832   -0.1498    0.0322 C   0  0  0  0  0  0  0  0  0  0  0  0
   -1.2041    0.1541    1.2799 F   0  0  0  0  0  0  0  0  0  0  0  0
   -1.1366   -1.4359   -0.2127 F   0  0  0  0  0  0  0  0  0  0  0  0
    0.7117    0.0506   -0.1553 C   0  0  0  0  0  0  0  0  0  0  0  0
    1.6862   -0.9692    0.9351 Cl  0  0  0  0  0  0  0  0  0  0  0  0
    1.2136    1.9180    0.1378 Br  0  0  0  0  0  0  0  0  0  0  0  0
  1  2  1  0
  2  3  1  0
  2  4  1  0
  2  5  1  0
  5  6  1  0
  5  7  1  0
M  END
>  <target>  (1124) 
-1.71

$$$$

     RDKit          3D

 14 13  0  0  0  0  0  0  0  0999 V2000
    4.3736    0.5544    0.1542 C   0  0  0  0  0  0  0  0  0  0  0  0
    2.9643    0.5881   -0.1125 N   0  0  0  0  0  0  0  0  0  0  0  0
    2.3665    1.6177   -0.7923 C   0  0  0  0  0  0  0  0  0  0  0  0
    2.9801    2.5145   -1.3587 O   0  0  0  0  0  0  0  0  0  0  0  0
    0.9857    1.5801   -0.7784 O   0  0  0  0  0  0  0  0  0  0  0  0
    0.4794    0.4824   -0.0352 N   0  0  0  0  0  0  0  0  0  0  0  0
   -0.8145    0.5008   -0.0239 C   0  0  0  0  0  0  0  0  0  0  0  0
   -1.9499    1.6036   -0.7269 S   0  0  0  0  0  0  0  0  0  0  0  0
   -1.8639    2.8994    0.5283 C   0  0  0  0  0  0  0  0  0  0  0  0
   -1.6440   -0.5565    0.6651 C   0  0  0  0  0  0  0  0  0  0  0  0
   -2.0480   -0.3126    1.7988 O   0  0  0  0  0  0  0  0  0  0  0  0
   -1.8583   -1.7583   -0.0153 N   0  0  0  0  0  0  0  0  0  0  0  0
   -2.5193   -2.8416    0.6886 C   0  0  0  0  0  0  0  0  0  0  0  0
   -1.2070   -2.0976   -1.2714 C   0  0  0  0  0  0  0  0  0  0  0  0
  1  2  1  0
  2  3  1  0
  3  4  2  0
  3  5  1  0
  5  6  1  0
  6  7  2  3
  7  8  1  0
  8  9  1  0
  7 10  1  0
 10 11  2  0
 10 12  1  0
 12 13  1  0
 12 14  1  0
M  END
>  <target>  (1125) 
0.106

$$$$

     RDKit          3D

 12 11  0  0  0  0  0  0  0  0999 V2000
    4.3873    0.8943    0.1965 C   0  0  0  0  0  0  0  0  0  0  0  0
    3.2597   -0.0184   -0.2527 C   0  0  0  0  0  0  0  0  0  0  0  0
    1.7052    0.9228   -0.3515 S   0  0  0  0  0  0  0  0  0  0  0  0
    0.6354   -0.3208   -1.1610 C   0  0  0  0  0  0  0  0  0  0  0  0
    0.4074   -1.6201   -0.3858 C   0  0  0  0  0  0  0  0  0  0  0  0
   -0.3163   -1.4293    1.2696 S   0  0  0  0  0  0  0  0  0  0  0  0
   -2.2117   -0.5638    0.9507 P   0  0  0  0  0  0  0  0  0  0  0  0
   -3.5676   -0.7738    2.3381 S   0  0  0  0  0  0  0  0  0  0  0  0
   -1.9695    0.9854    0.5226 O   0  0  0  0  0  0  0  0  0  0  0  0
   -1.5150    1.9015    1.5007 C   0  0  0  0  0  0  0  0  0  0  0  0
   -2.6961   -1.1517   -0.4899 O   0  0  0  0  0  0  0  0  0  0  0  0
   -3.8866   -0.6547   -1.0719 C   0  0  0  0  0  0  0  0  0  0  0  0
  1  2  1  0
  2  3  1  0
  3  4  1  0
  4  5  1  0
  5  6  1  0
  6  7  1  0
  7  8  2  0
  7  9  1  0
  9 10  1  0
  7 11  1  0
 11 12  1  0
M  END
>  <target>  (1126) 
-3.091

$$$$

     RDKit          3D

  5  4  0  0  0  0  0  0  0  0999 V2000
    1.8870    0.5819   -0.8113 C   0  0  0  0  0  0  0  0  0  0  0  0
    0.9323   -0.4913   -0.3077 C   0  0  0  0  0  0  0  0  0  0  0  0
   -0.5492   -0.0847   -0.3893 C   0  0  0  0  0  0  0  0  0  0  0  0
   -0.8736    1.1162    0.5005 C   0  0  0  0  0  0  0  0  0  0  0  0
   -1.4356   -1.2704   -0.0008 C   0  0  0  0  0  0  0  0  0  0  0  0
  1  2  1  0
  2  3  1  0
  3  4  1  0
  3  5  1  0
M  END
>  <target>  (1127) 
-3.18

$$$$

     RDKit          3D

 19 19  0  0  0  0  0  0  0  0999 V2000
   -3.8271   -1.0389    0.0076 C   0  0  0  0  0  0  0  0  0  0  0  0
   -2.8338   -1.0273    1.0126 O   0  0  0  0  0  0  0  0  0  0  0  0
   -1.4225   -0.3541    0.6189 P   0  0  0  0  0  0  0  0  0  0  0  0
   -1.5227    1.0530    0.1153 O   0  0  0  0  0  0  0  0  0  0  0  0
   -0.5558   -0.5272    1.9685 O   0  0  0  0  0  0  0  0  0  0  0  0
   -0.8859    0.3301    3.0417 C   0  0  0  0  0  0  0  0  0  0  0  0
   -0.7661   -1.4239   -0.3903 O   0  0  0  0  0  0  0  0  0  0  0  0
    0.4430   -1.3373   -1.0507 C   0  0  0  0  0  0  0  0  0  0  0  0
    0.9002   -2.3371   -1.8136 C   0  0  0  0  0  0  0  0  0  0  0  0
    0.0620   -3.8136   -2.0562 Cl  0  0  0  0  0  0  0  0  0  0  0  0
    1.2312   -0.1046   -0.9033 C   0  0  0  0  0  0  0  0  0  0  0  0
    2.0632    0.0255    0.2201 C   0  0  0  0  0  0  0  0  0  0  0  0
    2.8238    1.1833    0.4142 C   0  0  0  0  0  0  0  0  0  0  0  0
    3.8081    1.2665    1.8311 Cl  0  0  0  0  0  0  0  0  0  0  0  0
    2.7679    2.2200   -0.5232 C   0  0  0  0  0  0  0  0  0  0  0  0
    3.6864    3.6733   -0.3507 Cl  0  0  0  0  0  0  0  0  0  0  0  0
    1.9525    2.0966   -1.6506 C   0  0  0  0  0  0  0  0  0  0  0  0
    1.1893    0.9413   -1.8414 C   0  0  0  0  0  0  0  0  0  0  0  0
    0.2037    0.8531   -3.2593 Cl  0  0  0  0  0  0  0  0  0  0  0  0
  1  2  1  0
  2  3  1  0
  3  4  2  0
  3  5  1  0
  5  6  1  0
  3  7  1  0
  7  8  1  0
  8  9  2  3
  9 10  1  0
  8 11  1  0
 11 12  2  0
 12 13  1  0
 13 14  1  0
 13 15  2  0
 15 16  1  0
 15 17  1  0
 17 18  2  0
 18 19  1  0
 18 11  1  0
M  END
>  <target>  (1128) 
-4.522

$$$$
