mobley_7690440
     RDKit          3D

 10  9  0  0  0  0  0  0  0  0999 V2000
    0.8110   -0.6600    0.3190 C   0  0  0  0  0  0  0  0  0  0  0  0
    0.2410   -1.6600    1.7150 S   0  0  0  0  0  0  0  0  0  0  0  0
    1.8940   -2.8210    2.1000 S   0  0  0  0  0  0  0  0  0  0  0  0
    1.5890   -4.2570    1.0430 C   0  0  0  0  0  0  0  0  0  0  0  0
    0.0000    0.0000    0.0000 H   0  0  0  0  0  0  0  0  0  0  0  0
    0.0000    0.0000    0.0000 H   0  0  0  0  0  0  0  0  0  0  0  0
    0.0000    0.0000    0.0000 H   0  0  0  0  0  0  0  0  0  0  0  0
    0.0000    0.0000    0.0000 H   0  0  0  0  0  0  0  0  0  0  0  0
    0.0000    0.0000    0.0000 H   0  0  0  0  0  0  0  0  0  0  0  0
    0.0000    0.0000    0.0000 H   0  0  0  0  0  0  0  0  0  0  0  0
  1  2  1  0
  2  3  1  0
  3  4  1  0
  1  5  1  0
  1  6  1  0
  1  7  1  0
  4  8  1  0
  4  9  1  0
  4 10  1  0
M  END
>  <partial_charges>  (1) 
-0.0494999997318
-0.163900002837
-0.163900002837
-0.0494999997318
0.0710999965668
0.0710999965668
0.0710999965668
0.0710999965668
0.0710999965668
0.0710999965668

>  <partial_bond_orders>  (1) 
1.0
1.0
1.0
1.0
1.0
1.0
1.0
1.0
1.0

>  <atom_types>  (1) 
c3
ss
ss
c3
h1
h1
h1
h1
h1
h1

>  <target>  (1) 
-1.83

>  <cal>  (1) 
-0.093

$$$$
mobley_1449384
     RDKit          3D

 24 24  0  0  0  0  0  0  0  0999 V2000
    1.9310   -1.0130   -1.6030 C   0  0  0  0  0  0  0  0  0  0  0  0
    1.8850   -1.0360   -0.1120 C   0  0  0  0  0  0  0  0  0  0  0  0
    2.9210   -1.6310    0.6080 C   0  0  0  0  0  0  0  0  0  0  0  0
    2.8780   -1.6520    2.0020 C   0  0  0  0  0  0  0  0  0  0  0  0
    1.8000   -1.0790    2.6760 C   0  0  0  0  0  0  0  0  0  0  0  0
    0.7640   -0.4840    1.9550 C   0  0  0  0  0  0  0  0  0  0  0  0
    0.8070   -0.4630    0.5610 C   0  0  0  0  0  0  0  0  0  0  0  0
    1.7530   -1.1040    4.1660 C   0  0  0  0  0  0  0  0  0  0  0  0
    0.5460   -1.8960    4.7040 C   0  0  0  0  0  0  0  0  0  0  0  0
    1.7660    0.3090    4.7800 C   0  0  0  0  0  0  0  0  0  0  0  0
    0.0000    0.0000    0.0000 H   0  0  0  0  0  0  0  0  0  0  0  0
    0.0000    0.0000    0.0000 H   0  0  0  0  0  0  0  0  0  0  0  0
    0.0000    0.0000    0.0000 H   0  0  0  0  0  0  0  0  0  0  0  0
    0.0000    0.0000    0.0000 H   0  0  0  0  0  0  0  0  0  0  0  0
    0.0000    0.0000    0.0000 H   0  0  0  0  0  0  0  0  0  0  0  0
    0.0000    0.0000    0.0000 H   0  0  0  0  0  0  0  0  0  0  0  0
    0.0000    0.0000    0.0000 H   0  0  0  0  0  0  0  0  0  0  0  0
    0.0000    0.0000    0.0000 H   0  0  0  0  0  0  0  0  0  0  0  0
    0.0000    0.0000    0.0000 H   0  0  0  0  0  0  0  0  0  0  0  0
    0.0000    0.0000    0.0000 H   0  0  0  0  0  0  0  0  0  0  0  0
    0.0000    0.0000    0.0000 H   0  0  0  0  0  0  0  0  0  0  0  0
    0.0000    0.0000    0.0000 H   0  0  0  0  0  0  0  0  0  0  0  0
    0.0000    0.0000    0.0000 H   0  0  0  0  0  0  0  0  0  0  0  0
    0.0000    0.0000    0.0000 H   0  0  0  0  0  0  0  0  0  0  0  0
  1  2  1  0
  2  7  2  0
  2  3  1  0
  3  4  2  0
  4  5  1  0
  5  6  2  0
  6  7  1  0
  5  8  1  0
  8  9  1  0
  8 10  1  0
  1 11  1  0
  1 12  1  0
  1 13  1  0
  3 14  1  0
  4 15  1  0
  6 16  1  0
  7 17  1  0
  8 18  1  0
  9 19  1  0
  9 20  1  0
  9 21  1  0
 10 22  1  0
 10 23  1  0
 10 24  1  0
M  END
>  <partial_charges>  (2) 
-0.0529000014067
-0.0803999975324
-0.129600003362
-0.123199999332
-0.0773999989033
-0.123199999332
-0.129600003362
-0.0230999998748
-0.0874999985099
-0.0874999985099
0.0432000011206
0.0432000011206
0.0432000011206
0.129899993539
0.129899993539
0.129899993539
0.129899993539
0.0491999983788
0.0359999984503
0.0359999984503
0.0359999984503
0.0359999984503
0.0359999984503
0.0359999984503

>  <partial_bond_orders>  (2) 
1.0
2.0
1.0
2.0
1.0
2.0
1.0
1.0
1.0
1.0
1.0
1.0
1.0
1.0
1.0
1.0
1.0
1.0
1.0
1.0
1.0
1.0
1.0
1.0

>  <atom_types>  (2) 
c3
ca
ca
ca
ca
ca
ca
c3
c3
c3
hc
hc
hc
ha
ha
ha
ha
hc
hc
hc
hc
hc
hc
hc

>  <target>  (2) 
-0.68

>  <cal>  (2) 
-0.456

$$$$
mobley_5263791
     RDKit          3D

 24 25  0  0  0  0  0  0  0  0999 V2000
   -0.9110   -4.5700    2.5510 C   0  0  0  0  0  0  0  0  0  0  0  0
   -1.0090   -4.3870    1.0440 C   0  0  0  0  0  0  0  0  0  0  0  0
   -0.0480   -3.3540    0.5450 C   0  0  0  0  0  0  0  0  0  0  0  0
   -0.4970   -2.0340    0.4940 C   0  0  0  0  0  0  0  0  0  0  0  0
    0.3500   -1.0280    0.0390 C   0  0  0  0  0  0  0  0  0  0  0  0
    1.6480   -1.3370   -0.3660 C   0  0  0  0  0  0  0  0  0  0  0  0
    2.1170   -2.6600   -0.3220 C   0  0  0  0  0  0  0  0  0  0  0  0
    1.2560   -3.6840    0.1400 C   0  0  0  0  0  0  0  0  0  0  0  0
    1.7240   -5.0070    0.1850 C   0  0  0  0  0  0  0  0  0  0  0  0
    3.0230   -5.3170   -0.2210 C   0  0  0  0  0  0  0  0  0  0  0  0
    3.8690   -4.3100   -0.6760 C   0  0  0  0  0  0  0  0  0  0  0  0
    3.4210   -2.9900   -0.7270 C   0  0  0  0  0  0  0  0  0  0  0  0
    0.0000    0.0000    0.0000 H   0  0  0  0  0  0  0  0  0  0  0  0
    0.0000    0.0000    0.0000 H   0  0  0  0  0  0  0  0  0  0  0  0
    0.0000    0.0000    0.0000 H   0  0  0  0  0  0  0  0  0  0  0  0
    0.0000    0.0000    0.0000 H   0  0  0  0  0  0  0  0  0  0  0  0
    0.0000    0.0000    0.0000 H   0  0  0  0  0  0  0  0  0  0  0  0
    0.0000    0.0000    0.0000 H   0  0  0  0  0  0  0  0  0  0  0  0
    0.0000    0.0000    0.0000 H   0  0  0  0  0  0  0  0  0  0  0  0
    0.0000    0.0000    0.0000 H   0  0  0  0  0  0  0  0  0  0  0  0
    0.0000    0.0000    0.0000 H   0  0  0  0  0  0  0  0  0  0  0  0
    0.0000    0.0000    0.0000 H   0  0  0  0  0  0  0  0  0  0  0  0
    0.0000    0.0000    0.0000 H   0  0  0  0  0  0  0  0  0  0  0  0
    0.0000    0.0000    0.0000 H   0  0  0  0  0  0  0  0  0  0  0  0
  1  2  1  0
  2  3  1  0
  3  8  2  0
  3  4  1  0
  4  5  2  0
  5  6  1  0
  6  7  2  0
  7 12  1  0
  7  8  1  0
  8  9  1  0
  9 10  2  0
 10 11  1  0
 11 12  2  0
  1 13  1  0
  1 14  1  0
  1 15  1  0
  2 16  1  0
  2 17  1  0
  4 18  1  0
  5 19  1  0
  6 20  1  0
  9 21  1  0
 10 22  1  0
 11 23  1  0
 12 24  1  0
M  END
>  <partial_charges>  (3) 
-0.0908000022173
-0.0414999984205
-0.0625
-0.130899995565
-0.124799996614
-0.121500000358
-0.0346000008285
-0.0270000007004
-0.118500001729
-0.129299998283
-0.128299996257
-0.11819999665
0.0370999984443
0.0370999984443
0.0370999984443
0.0469000004232
0.0469000004232
0.131099998951
0.131799995899
0.131799995899
0.134399995208
0.130899995565
0.131099998951
0.131799995899

>  <partial_bond_orders>  (3) 
1.0
1.0
2.0
1.0
2.0
1.0
2.0
1.0
1.0
1.0
2.0
1.0
2.0
1.0
1.0
1.0
1.0
1.0
1.0
1.0
1.0
1.0
1.0
1.0
1.0

>  <atom_types>  (3) 
c3
c3
ca
ca
ca
ca
ca
ca
ca
ca
ca
ca
hc
hc
hc
hc
hc
ha
ha
ha
ha
ha
ha
ha

>  <target>  (3) 
-2.4

>  <cal>  (3) 
-2.961

$$$$
mobley_4561957
     RDKit          3D

 20 19  0  0  0  0  0  0  0  0999 V2000
    0.5110   -0.7950    0.5540 C   0  0  0  0  0  0  0  0  0  0  0  0
    1.2460   -0.2130    1.7650 C   0  0  0  0  0  0  0  0  0  0  0  0
    0.2490    0.5310    2.6600 C   0  0  0  0  0  0  0  0  0  0  0  0
    2.0680   -1.2570    2.5680 C   0  0  0  0  0  0  0  0  0  0  0  0
    1.2320   -2.4040    3.1420 C   0  0  0  0  0  0  0  0  0  0  0  0
    3.2220   -1.8290    1.7380 C   0  0  0  0  0  0  0  0  0  0  0  0
    0.0000    0.0000    0.0000 H   0  0  0  0  0  0  0  0  0  0  0  0
    0.0000    0.0000    0.0000 H   0  0  0  0  0  0  0  0  0  0  0  0
    0.0000    0.0000    0.0000 H   0  0  0  0  0  0  0  0  0  0  0  0
    0.0000    0.0000    0.0000 H   0  0  0  0  0  0  0  0  0  0  0  0
    0.0000    0.0000    0.0000 H   0  0  0  0  0  0  0  0  0  0  0  0
    0.0000    0.0000    0.0000 H   0  0  0  0  0  0  0  0  0  0  0  0
    0.0000    0.0000    0.0000 H   0  0  0  0  0  0  0  0  0  0  0  0
    0.0000    0.0000    0.0000 H   0  0  0  0  0  0  0  0  0  0  0  0
    0.0000    0.0000    0.0000 H   0  0  0  0  0  0  0  0  0  0  0  0
    0.0000    0.0000    0.0000 H   0  0  0  0  0  0  0  0  0  0  0  0
    0.0000    0.0000    0.0000 H   0  0  0  0  0  0  0  0  0  0  0  0
    0.0000    0.0000    0.0000 H   0  0  0  0  0  0  0  0  0  0  0  0
    0.0000    0.0000    0.0000 H   0  0  0  0  0  0  0  0  0  0  0  0
    0.0000    0.0000    0.0000 H   0  0  0  0  0  0  0  0  0  0  0  0
  1  2  1  0
  2  3  1  0
  2  4  1  0
  4  5  1  0
  4  6  1  0
  1  7  1  0
  1  8  1  0
  1  9  1  0
  2 10  1  0
  3 11  1  0
  3 12  1  0
  3 13  1  0
  4 14  1  0
  5 15  1  0
  5 16  1  0
  5 17  1  0
  6 18  1  0
  6 19  1  0
  6 20  1  0
M  END
>  <partial_charges>  (4) 
-0.0891999974847
-0.0619000010192
-0.0891999974847
-0.0619000010192
-0.0891999974847
-0.0891999974847
0.0331999994814
0.0331999994814
0.0331999994814
0.041400000453
0.0331999994814
0.0331999994814
0.0331999994814
0.041400000453
0.0331999994814
0.0331999994814
0.0331999994814
0.0331999994814
0.0331999994814
0.0331999994814

>  <partial_bond_orders>  (4) 
1.0
1.0
1.0
1.0
1.0
1.0
1.0
1.0
1.0
1.0
1.0
1.0
1.0
1.0
1.0
1.0
1.0
1.0
1.0

>  <atom_types>  (4) 
c3
c3
c3
c3
c3
c3
hc
hc
hc
hc
hc
hc
hc
hc
hc
hc
hc
hc
hc
hc

>  <target>  (4) 
2.34

>  <cal>  (4) 
2.468

$$$$
mobley_5390332
     RDKit          3D

 17 16  0  0  0  0  0  0  0  0999 V2000
   -0.3790   -0.6980    0.7530 C   0  0  0  0  0  0  0  0  0  0  0  0
    0.4050   -0.5790    2.0500 C   0  0  0  0  0  0  0  0  0  0  0  0
    1.8850   -0.8880    1.8410 C   0  0  0  0  0  0  0  0  0  0  0  0
    2.6750   -0.7720    3.1240 C   0  0  0  0  0  0  0  0  0  0  0  0
    2.2100   -0.4690    4.2140 O   0  0  0  0  0  0  0  0  0  0  0  0
    3.9850   -1.0620    2.8650 O   0  0  0  0  0  0  0  0  0  0  0  0
    4.8650   -0.9950    3.9920 C   0  0  0  0  0  0  0  0  0  0  0  0
    0.0000    0.0000    0.0000 H   0  0  0  0  0  0  0  0  0  0  0  0
    0.0000    0.0000    0.0000 H   0  0  0  0  0  0  0  0  0  0  0  0
    0.0000    0.0000    0.0000 H   0  0  0  0  0  0  0  0  0  0  0  0
    0.0000    0.0000    0.0000 H   0  0  0  0  0  0  0  0  0  0  0  0
    0.0000    0.0000    0.0000 H   0  0  0  0  0  0  0  0  0  0  0  0
    0.0000    0.0000    0.0000 H   0  0  0  0  0  0  0  0  0  0  0  0
    0.0000    0.0000    0.0000 H   0  0  0  0  0  0  0  0  0  0  0  0
    0.0000    0.0000    0.0000 H   0  0  0  0  0  0  0  0  0  0  0  0
    0.0000    0.0000    0.0000 H   0  0  0  0  0  0  0  0  0  0  0  0
    0.0000    0.0000    0.0000 H   0  0  0  0  0  0  0  0  0  0  0  0
  1  2  1  0
  2  3  1  0
  3  4  1  0
  4  5  2  0
  4  6  1  0
  6  7  1  0
  1  8  1  0
  1  9  1  0
  1 10  1  0
  2 11  1  0
  2 12  1  0
  3 13  1  0
  3 14  1  0
  7 15  1  0
  7 16  1  0
  7 17  1  0
M  END
>  <partial_charges>  (5) 
-0.097800001502
-0.0746999979019
-0.125400006771
0.630100011826
-0.541000008583
-0.442299991846
0.125400006771
0.0381000004709
0.0381000004709
0.0381000004709
0.0531999990344
0.0531999990344
0.0781000033021
0.0781000033021
0.049699999392
0.049699999392
0.049699999392

>  <partial_bond_orders>  (5) 
1.0
1.0
1.0
2.0
1.0
1.0
1.0
1.0
1.0
1.0
1.0
1.0
1.0
1.0
1.0
1.0

>  <atom_types>  (5) 
c3
c3
c3
c
o
os
c3
hc
hc
hc
hc
hc
hc
hc
h1
h1
h1

>  <target>  (5) 
-2.83

>  <cal>  (5) 
-3.552

$$$$
mobley_7015518
     RDKit          3D

  9  8  0  0  0  0  0  0  0  0999 V2000
   -0.6100   -0.5150    0.7480 C   0  0  0  0  0  0  0  0  0  0  0  0
    0.0350   -0.4990    2.0140 O   0  0  0  0  0  0  0  0  0  0  0  0
    1.2890   -1.1660    1.9690 C   0  0  0  0  0  0  0  0  0  0  0  0
    0.0000    0.0000    0.0000 H   0  0  0  0  0  0  0  0  0  0  0  0
    0.0000    0.0000    0.0000 H   0  0  0  0  0  0  0  0  0  0  0  0
    0.0000    0.0000    0.0000 H   0  0  0  0  0  0  0  0  0  0  0  0
    0.0000    0.0000    0.0000 H   0  0  0  0  0  0  0  0  0  0  0  0
    0.0000    0.0000    0.0000 H   0  0  0  0  0  0  0  0  0  0  0  0
    0.0000    0.0000    0.0000 H   0  0  0  0  0  0  0  0  0  0  0  0
  1  2  1  0
  2  3  1  0
  1  4  1  0
  1  5  1  0
  1  6  1  0
  3  7  1  0
  3  8  1  0
  3  9  1  0
M  END
>  <partial_charges>  (6) 
0.111900001764
-0.418199986219
0.112000003457
0.0324000008404
0.0324000008404
0.0324000008404
0.0324000008404
0.0324000008404
0.0324000008404

>  <partial_bond_orders>  (6) 
1.0
1.0
1.0
1.0
1.0
1.0
1.0
1.0

>  <atom_types>  (6) 
c3
os
c3
h1
h1
h1
h1
h1
h1

>  <target>  (6) 
-1.91

>  <cal>  (6) 
-0.853

$$$$
mobley_6917738
     RDKit          3D

 14 13  0  0  0  0  0  0  0  0999 V2000
   -0.5620   -4.0350    1.8950 C   0  0  0  0  0  0  0  0  0  0  0  0
   -0.4500   -2.6240    2.0240 O   0  0  0  0  0  0  0  0  0  0  0  0
   -0.3630   -1.9890    0.7540 C   0  0  0  0  0  0  0  0  0  0  0  0
   -0.2450   -0.4880    0.9480 C   0  0  0  0  0  0  0  0  0  0  0  0
   -0.1540    0.1770   -0.3720 N   0  0  0  0  0  0  0  0  0  0  0  0
    0.0000    0.0000    0.0000 H   0  0  0  0  0  0  0  0  0  0  0  0
    0.0000    0.0000    0.0000 H   0  0  0  0  0  0  0  0  0  0  0  0
    0.0000    0.0000    0.0000 H   0  0  0  0  0  0  0  0  0  0  0  0
    0.0000    0.0000    0.0000 H   0  0  0  0  0  0  0  0  0  0  0  0
    0.0000    0.0000    0.0000 H   0  0  0  0  0  0  0  0  0  0  0  0
    0.0000    0.0000    0.0000 H   0  0  0  0  0  0  0  0  0  0  0  0
    0.0000    0.0000    0.0000 H   0  0  0  0  0  0  0  0  0  0  0  0
    0.0000    0.0000    0.0000 H   0  0  0  0  0  0  0  0  0  0  0  0
    0.0000    0.0000    0.0000 H   0  0  0  0  0  0  0  0  0  0  0  0
  1  2  1  0
  2  3  1  0
  3  4  1  0
  4  5  1  0
  1  6  1  0
  1  7  1  0
  1  8  1  0
  3  9  1  0
  3 10  1  0
  4 11  1  0
  4 12  1  0
  5 13  1  0
  5 14  1  0
M  END
>  <partial_charges>  (7) 
0.112400002778
-0.410100013018
0.081200003624
0.148200005293
-0.903199970722
0.034200001508
0.034200001508
0.034200001508
0.0219999998808
0.0219999998808
0.0665000006557
0.0665000006557
0.345899999142
0.345899999142

>  <partial_bond_orders>  (7) 
1.0
1.0
1.0
1.0
1.0
1.0
1.0
1.0
1.0
1.0
1.0
1.0
1.0

>  <atom_types>  (7) 
c3
os
c3
c3
n3
h1
h1
h1
h1
h1
h1
h1
hn
hn

>  <target>  (7) 
-6.55

>  <cal>  (7) 
-5.027

$$$$
mobley_7203421
     RDKit          3D

 21 20  0  0  0  0  0  0  0  0999 V2000
    1.0700   -0.0690   -0.2230 C   0  0  0  0  0  0  0  0  0  0  0  0
    1.4100    0.7800   -1.4370 C   0  0  0  0  0  0  0  0  0  0  0  0
    2.8890    0.6630   -1.8060 C   0  0  0  0  0  0  0  0  0  0  0  0
    3.2250    1.5210   -3.0300 C   0  0  0  0  0  0  0  0  0  0  0  0
    4.6980    1.4240   -3.4220 C   0  0  0  0  0  0  0  0  0  0  0  0
    5.0630    2.2640   -4.6330 C   0  0  0  0  0  0  0  0  0  0  0  0
    4.2590    2.9450   -5.2620 O   0  0  0  0  0  0  0  0  0  0  0  0
    6.3970    2.1560   -4.9630 N   0  0  0  0  0  0  0  0  0  0  0  0
    0.0000    0.0000    0.0000 H   0  0  0  0  0  0  0  0  0  0  0  0
    0.0000    0.0000    0.0000 H   0  0  0  0  0  0  0  0  0  0  0  0
    0.0000    0.0000    0.0000 H   0  0  0  0  0  0  0  0  0  0  0  0
    0.0000    0.0000    0.0000 H   0  0  0  0  0  0  0  0  0  0  0  0
    0.0000    0.0000    0.0000 H   0  0  0  0  0  0  0  0  0  0  0  0
    0.0000    0.0000    0.0000 H   0  0  0  0  0  0  0  0  0  0  0  0
    0.0000    0.0000    0.0000 H   0  0  0  0  0  0  0  0  0  0  0  0
    0.0000    0.0000    0.0000 H   0  0  0  0  0  0  0  0  0  0  0  0
    0.0000    0.0000    0.0000 H   0  0  0  0  0  0  0  0  0  0  0  0
    0.0000    0.0000    0.0000 H   0  0  0  0  0  0  0  0  0  0  0  0
    0.0000    0.0000    0.0000 H   0  0  0  0  0  0  0  0  0  0  0  0
    0.0000    0.0000    0.0000 H   0  0  0  0  0  0  0  0  0  0  0  0
    0.0000    0.0000    0.0000 H   0  0  0  0  0  0  0  0  0  0  0  0
  1  2  1  0
  2  3  1  0
  3  4  1  0
  4  5  1  0
  5  6  1  0
  6  7  2  0
  6  8  1  0
  1  9  1  0
  1 10  1  0
  1 11  1  0
  2 12  1  0
  2 13  1  0
  3 14  1  0
  3 15  1  0
  4 16  1  0
  4 17  1  0
  5 18  1  0
  5 19  1  0
  8 20  1  0
  8 21  1  0
M  END
>  <partial_charges>  (8) 
-0.0932999998331
-0.0826999992132
-0.0781000033021
-0.0750999972224
-0.151999995112
0.656099975109
-0.614400029182
-0.68029999733
0.0324999988079
0.0324999988079
0.0324999988079
0.0401000007987
0.0401000007987
0.0447000004351
0.0447000004351
0.0498000010848
0.0498000010848
0.0668999999762
0.0668999999762
0.309500008821
0.309500008821

>  <partial_bond_orders>  (8) 
1.0
1.0
1.0
1.0
1.0
2.0
1.0
1.0
1.0
1.0
1.0
1.0
1.0
1.0
1.0
1.0
1.0
1.0
1.0
1.0

>  <atom_types>  (8) 
c3
c3
c3
c3
c3
c
o
n
hc
hc
hc
hc
hc
hc
hc
hc
hc
hc
hc
hn
hn

>  <target>  (8) 
-9.31

>  <cal>  (8) 
-8.103

$$$$
mobley_8311321
     RDKit          3D

  5  4  0  0  0  0  0  0  0  0999 V2000
   -0.0490    0.0730   -0.0580 C   0  0  0  0  0  0  0  0  0  0  0  0
   -0.9800   -0.8280   -0.4580 F   0  0  0  0  0  0  0  0  0  0  0  0
   -0.5370    0.6810    1.0510 F   0  0  0  0  0  0  0  0  0  0  0  0
    1.4670   -0.7420    0.3110 Cl  0  0  0  0  0  0  0  0  0  0  0  0
    0.0000    0.0000    0.0000 H   0  0  0  0  0  0  0  0  0  0  0  0
  1  2  1  0
  1  3  1  0
  1  4  1  0
  1  5  1  0
M  END
>  <partial_charges>  (9) 
0.51139998436
-0.213200002909
-0.213200002909
-0.192499995232
0.107500001788

>  <partial_bond_orders>  (9) 
1.0
1.0
1.0
1.0

>  <atom_types>  (9) 
c3
f
f
cl
h3

>  <target>  (9) 
-0.5

>  <cal>  (9) 
-0.067

$$$$
mobley_4620651
     RDKit          3D

 15 15  0  0  0  0  0  0  0  0999 V2000
   -1.8560   -1.8500   -3.2200 C   0  0  0  0  0  0  0  0  0  0  0  0
   -1.2590   -1.6960   -1.9290 O   0  0  0  0  0  0  0  0  0  0  0  0
   -1.6380   -0.5840   -1.2370 C   0  0  0  0  0  0  0  0  0  0  0  0
   -2.4250    0.2730   -1.6140 O   0  0  0  0  0  0  0  0  0  0  0  0
   -0.9370   -0.5550    0.0880 C   0  0  0  0  0  0  0  0  0  0  0  0
   -1.5410   -1.3090    1.2220 C   0  0  0  0  0  0  0  0  0  0  0  0
   -1.5750    0.1890    1.2090 C   0  0  0  0  0  0  0  0  0  0  0  0
    0.0000    0.0000    0.0000 H   0  0  0  0  0  0  0  0  0  0  0  0
    0.0000    0.0000    0.0000 H   0  0  0  0  0  0  0  0  0  0  0  0
    0.0000    0.0000    0.0000 H   0  0  0  0  0  0  0  0  0  0  0  0
    0.0000    0.0000    0.0000 H   0  0  0  0  0  0  0  0  0  0  0  0
    0.0000    0.0000    0.0000 H   0  0  0  0  0  0  0  0  0  0  0  0
    0.0000    0.0000    0.0000 H   0  0  0  0  0  0  0  0  0  0  0  0
    0.0000    0.0000    0.0000 H   0  0  0  0  0  0  0  0  0  0  0  0
    0.0000    0.0000    0.0000 H   0  0  0  0  0  0  0  0  0  0  0  0
  1  2  1  0
  2  3  1  0
  3  4  2  0
  3  5  1  0
  5  7  1  0
  5  6  1  0
  6  7  1  0
  1  8  1  0
  1  9  1  0
  1 10  1  0
  5 11  1  0
  6 12  1  0
  6 13  1  0
  7 14  1  0
  7 15  1  0
M  END
>  <partial_charges>  (10) 
0.125200003386
-0.437200009823
0.659399986267
-0.535799980164
-0.192300006747
-0.106700003147
-0.106700003147
0.0498999990523
0.0498999990523
0.0498999990523
0.11249999702
0.082999996841
0.082999996841
0.082999996841
0.082999996841

>  <partial_bond_orders>  (10) 
1.0
1.0
2.0
1.0
1.0
1.0
1.0
1.0
1.0
1.0
1.0
1.0
1.0
1.0
1.0

>  <atom_types>  (10) 
c3
os
c
o
cx
cx
cx
h1
h1
h1
hc
hc
hc
hc
hc

>  <target>  (10) 
-4.1

>  <cal>  (10) 
-3.604

$$$$
mobley_7364468
     RDKit          3D

 24 24  0  0  0  0  0  0  0  0999 V2000
    0.1360   -2.7140    1.0780 C   0  0  0  0  0  0  0  0  0  0  0  0
    0.9790   -1.4740    1.1630 C   0  0  0  0  0  0  0  0  0  0  0  0
    1.7070   -1.2020    2.2560 C   0  0  0  0  0  0  0  0  0  0  0  0
    2.4900    0.0530    2.3480 C   0  0  0  0  0  0  0  0  0  0  0  0
    3.1580    0.2810    3.3560 O   0  0  0  0  0  0  0  0  0  0  0  0
    2.3870    1.0610    1.2230 C   0  0  0  0  0  0  0  0  0  0  0  0
    2.1420    0.3970   -0.1420 C   0  0  0  0  0  0  0  0  0  0  0  0
    0.9390   -0.5680   -0.0430 C   0  0  0  0  0  0  0  0  0  0  0  0
    3.4060   -0.3590   -0.6040 C   0  0  0  0  0  0  0  0  0  0  0  0
    1.8310    1.4850   -1.1860 C   0  0  0  0  0  0  0  0  0  0  0  0
    0.0000    0.0000    0.0000 H   0  0  0  0  0  0  0  0  0  0  0  0
    0.0000    0.0000    0.0000 H   0  0  0  0  0  0  0  0  0  0  0  0
    0.0000    0.0000    0.0000 H   0  0  0  0  0  0  0  0  0  0  0  0
    0.0000    0.0000    0.0000 H   0  0  0  0  0  0  0  0  0  0  0  0
    0.0000    0.0000    0.0000 H   0  0  0  0  0  0  0  0  0  0  0  0
    0.0000    0.0000    0.0000 H   0  0  0  0  0  0  0  0  0  0  0  0
    0.0000    0.0000    0.0000 H   0  0  0  0  0  0  0  0  0  0  0  0
    0.0000    0.0000    0.0000 H   0  0  0  0  0  0  0  0  0  0  0  0
    0.0000    0.0000    0.0000 H   0  0  0  0  0  0  0  0  0  0  0  0
    0.0000    0.0000    0.0000 H   0  0  0  0  0  0  0  0  0  0  0  0
    0.0000    0.0000    0.0000 H   0  0  0  0  0  0  0  0  0  0  0  0
    0.0000    0.0000    0.0000 H   0  0  0  0  0  0  0  0  0  0  0  0
    0.0000    0.0000    0.0000 H   0  0  0  0  0  0  0  0  0  0  0  0
    0.0000    0.0000    0.0000 H   0  0  0  0  0  0  0  0  0  0  0  0
  1  2  1  0
  2  8  1  0
  2  3  2  0
  3  4  1  0
  4  5  2  0
  4  6  1  0
  6  7  1  0
  7  8  1  0
  7  9  1  0
  7 10  1  0
  1 11  1  0
  1 12  1  0
  1 13  1  0
  3 14  1  0
  6 15  1  0
  6 16  1  0
  8 17  1  0
  8 18  1  0
  9 19  1  0
  9 20  1  0
  9 21  1  0
 10 22  1  0
 10 23  1  0
 10 24  1  0
M  END
>  <partial_charges>  (11) 
-0.0741000026464
-0.0366999991238
-0.262400001287
0.568000018597
-0.539699971676
-0.175099998713
-0.0447999984026
-0.055300001055
-0.090300001204
-0.090300001204
0.0516000017524
0.0516000017524
0.0516000017524
0.1481000036
0.0728000029922
0.0728000029922
0.0588000006974
0.0588000006974
0.0390999987721
0.0390999987721
0.0390999987721
0.0390999987721
0.0390999987721
0.0390999987721

>  <partial_bond_orders>  (11) 
1.0
1.0
2.0
1.0
2.0
1.0
1.0
1.0
1.0
1.0
1.0
1.0
1.0
1.0
1.0
1.0
1.0
1.0
1.0
1.0
1.0
1.0
1.0
1.0

>  <atom_types>  (11) 
c3
c2
ce
c
o
c3
c3
c3
c3
c3
hc
hc
hc
ha
hc
hc
hc
hc
hc
hc
hc
hc
hc
hc

>  <target>  (11) 
-5.18

>  <cal>  (11) 
-4.088

$$$$
mobley_4043987
     RDKit          3D

 23 22  0  0  0  0  0  0  0  0999 V2000
   -0.5190    0.6340   -0.8650 C   0  0  0  0  0  0  0  0  0  0  0  0
   -1.5690    1.5500   -0.2570 C   0  0  0  0  0  0  0  0  0  0  0  0
   -2.6300    0.7570    0.5080 C   0  0  0  0  0  0  0  0  0  0  0  0
   -3.6830    1.6860    1.1180 C   0  0  0  0  0  0  0  0  0  0  0  0
   -4.7800    0.9410    1.9020 C   0  0  0  0  0  0  0  0  0  0  0  0
   -4.1490    0.1530    3.0530 C   0  0  0  0  0  0  0  0  0  0  0  0
   -5.8510    1.8850    2.4490 C   0  0  0  0  0  0  0  0  0  0  0  0
    0.0000    0.0000    0.0000 H   0  0  0  0  0  0  0  0  0  0  0  0
    0.0000    0.0000    0.0000 H   0  0  0  0  0  0  0  0  0  0  0  0
    0.0000    0.0000    0.0000 H   0  0  0  0  0  0  0  0  0  0  0  0
    0.0000    0.0000    0.0000 H   0  0  0  0  0  0  0  0  0  0  0  0
    0.0000    0.0000    0.0000 H   0  0  0  0  0  0  0  0  0  0  0  0
    0.0000    0.0000    0.0000 H   0  0  0  0  0  0  0  0  0  0  0  0
    0.0000    0.0000    0.0000 H   0  0  0  0  0  0  0  0  0  0  0  0
    0.0000    0.0000    0.0000 H   0  0  0  0  0  0  0  0  0  0  0  0
    0.0000    0.0000    0.0000 H   0  0  0  0  0  0  0  0  0  0  0  0
    0.0000    0.0000    0.0000 H   0  0  0  0  0  0  0  0  0  0  0  0
    0.0000    0.0000    0.0000 H   0  0  0  0  0  0  0  0  0  0  0  0
    0.0000    0.0000    0.0000 H   0  0  0  0  0  0  0  0  0  0  0  0
    0.0000    0.0000    0.0000 H   0  0  0  0  0  0  0  0  0  0  0  0
    0.0000    0.0000    0.0000 H   0  0  0  0  0  0  0  0  0  0  0  0
    0.0000    0.0000    0.0000 H   0  0  0  0  0  0  0  0  0  0  0  0
    0.0000    0.0000    0.0000 H   0  0  0  0  0  0  0  0  0  0  0  0
  1  2  1  0
  2  3  1  0
  3  4  1  0
  4  5  1  0
  5  6  1  0
  5  7  1  0
  1  8  1  0
  1  9  1  0
  1 10  1  0
  2 11  1  0
  2 12  1  0
  3 13  1  0
  3 14  1  0
  4 15  1  0
  4 16  1  0
  5 17  1  0
  6 18  1  0
  6 19  1  0
  6 20  1  0
  7 21  1  0
  7 22  1  0
  7 23  1  0
M  END
>  <partial_charges>  (12) 
-0.0916000008583
-0.0807999968529
-0.0791999995708
-0.0737000033259
-0.0672999992967
-0.0901999995112
-0.0901999995112
0.0328000001609
0.0328000001609
0.0328000001609
0.0373999997973
0.0373999997973
0.0395000018179
0.0395000018179
0.0388000011444
0.0388000011444
0.0447999984026
0.033100001514
0.033100001514
0.033100001514
0.033100001514
0.033100001514
0.033100001514

>  <partial_bond_orders>  (12) 
1.0
1.0
1.0
1.0
1.0
1.0
1.0
1.0
1.0
1.0
1.0
1.0
1.0
1.0
1.0
1.0
1.0
1.0
1.0
1.0
1.0
1.0

>  <atom_types>  (12) 
c3
c3
c3
c3
c3
c3
c3
hc
hc
hc
hc
hc
hc
hc
hc
hc
hc
hc
hc
hc
hc
hc
hc

>  <target>  (12) 
2.93

>  <cal>  (12) 
2.894

$$$$
mobley_1733799
     RDKit          3D

 13 13  0  0  0  0  0  0  0  0999 V2000
    1.8850   -1.0360   -0.1120 C   0  0  0  0  0  0  0  0  0  0  0  0
    2.9210   -1.6310    0.6080 C   0  0  0  0  0  0  0  0  0  0  0  0
    2.8780   -1.6520    2.0020 C   0  0  0  0  0  0  0  0  0  0  0  0
    1.8000   -1.0790    2.6760 C   0  0  0  0  0  0  0  0  0  0  0  0
    0.7640   -0.4840    1.9550 C   0  0  0  0  0  0  0  0  0  0  0  0
    0.8070   -0.4630    0.5610 C   0  0  0  0  0  0  0  0  0  0  0  0
   -0.2040    0.1170   -0.1430 O   0  0  0  0  0  0  0  0  0  0  0  0
    4.2810   -2.4580    2.9780 Br  0  0  0  0  0  0  0  0  0  0  0  0
    0.0000    0.0000    0.0000 H   0  0  0  0  0  0  0  0  0  0  0  0
    0.0000    0.0000    0.0000 H   0  0  0  0  0  0  0  0  0  0  0  0
    0.0000    0.0000    0.0000 H   0  0  0  0  0  0  0  0  0  0  0  0
    0.0000    0.0000    0.0000 H   0  0  0  0  0  0  0  0  0  0  0  0
    0.0000    0.0000    0.0000 H   0  0  0  0  0  0  0  0  0  0  0  0
  1  6  2  0
  1  2  1  0
  2  3  2  0
  3  4  1  0
  4  5  2  0
  5  6  1  0
  6  7  1  0
  3  8  1  0
  1  9  1  0
  2 10  1  0
  4 11  1  0
  5 12  1  0
  7 13  1  0
M  END
>  <partial_charges>  (13) 
-0.1875
-0.0658999979496
-0.0659999996424
-0.0658999979496
-0.1875
0.137799993157
-0.49279999733
-0.0873999968171
0.147799998522
0.148599997163
0.148599997163
0.147799998522
0.422500014305

>  <partial_bond_orders>  (13) 
2.0
1.0
2.0
1.0
2.0
1.0
1.0
1.0
1.0
1.0
1.0
1.0
1.0

>  <atom_types>  (13) 
ca
ca
ca
ca
ca
ca
oh
br
ha
ha
ha
ha
ho

>  <target>  (13) 
-5.85

>  <cal>  (13) 
-5.833

$$$$
mobley_1800170
     RDKit          3D

  9  8  0  0  0  0  0  0  0  0999 V2000
    0.4410   -0.3500    0.9400 C   0  0  0  0  0  0  0  0  0  0  0  0
    1.8520   -0.8680    0.7340 C   0  0  0  0  0  0  0  0  0  0  0  0
    2.9260    0.4450    0.0920 S   0  0  0  0  0  0  0  0  0  0  0  0
    0.0000    0.0000    0.0000 H   0  0  0  0  0  0  0  0  0  0  0  0
    0.0000    0.0000    0.0000 H   0  0  0  0  0  0  0  0  0  0  0  0
    0.0000    0.0000    0.0000 H   0  0  0  0  0  0  0  0  0  0  0  0
    0.0000    0.0000    0.0000 H   0  0  0  0  0  0  0  0  0  0  0  0
    0.0000    0.0000    0.0000 H   0  0  0  0  0  0  0  0  0  0  0  0
    0.0000    0.0000    0.0000 H   0  0  0  0  0  0  0  0  0  0  0  0
  1  2  1  0
  2  3  1  0
  1  4  1  0
  1  5  1  0
  1  6  1  0
  2  7  1  0
  2  8  1  0
  3  9  1  0
M  END
>  <partial_charges>  (14) 
-0.0988000035286
0.00600000005215
-0.381099998951
0.043299999088
0.043299999088
0.043299999088
0.0720999985933
0.0720999985933
0.200100004673

>  <partial_bond_orders>  (14) 
1.0
1.0
1.0
1.0
1.0
1.0
1.0
1.0

>  <atom_types>  (14) 
c3
c3
sh
hc
hc
hc
h1
h1
hs

>  <target>  (14) 
-1.14

>  <cal>  (14) 
-0.395

$$$$
mobley_3265457
     RDKit          3D

 23 23  0  0  0  0  0  0  0  0999 V2000
    1.3510   -2.1260   -2.1500 C   0  0  0  0  0  0  0  0  0  0  0  0
    1.9390   -1.0210   -1.4740 O   0  0  0  0  0  0  0  0  0  0  0  0
    1.8850   -1.0360   -0.1120 C   0  0  0  0  0  0  0  0  0  0  0  0
    2.9210   -1.6310    0.6080 C   0  0  0  0  0  0  0  0  0  0  0  0
    2.8780   -1.6520    2.0020 C   0  0  0  0  0  0  0  0  0  0  0  0
    1.8000   -1.0790    2.6760 C   0  0  0  0  0  0  0  0  0  0  0  0
    0.7640   -0.4840    1.9550 C   0  0  0  0  0  0  0  0  0  0  0  0
    0.8070   -0.4630    0.5610 C   0  0  0  0  0  0  0  0  0  0  0  0
   -0.2050    0.1180   -0.1450 O   0  0  0  0  0  0  0  0  0  0  0  0
   -0.3000    0.0820    2.5960 O   0  0  0  0  0  0  0  0  0  0  0  0
   -1.4160   -0.7620    2.8640 C   0  0  0  0  0  0  0  0  0  0  0  0
    1.7360   -1.1010    4.4070 Cl  0  0  0  0  0  0  0  0  0  0  0  0
    3.9870   -2.2810    2.7090 C   0  0  0  0  0  0  0  0  0  0  0  0
    5.1530   -1.8970    2.6040 O   0  0  0  0  0  0  0  0  0  0  0  0
    0.0000    0.0000    0.0000 H   0  0  0  0  0  0  0  0  0  0  0  0
    0.0000    0.0000    0.0000 H   0  0  0  0  0  0  0  0  0  0  0  0
    0.0000    0.0000    0.0000 H   0  0  0  0  0  0  0  0  0  0  0  0
    0.0000    0.0000    0.0000 H   0  0  0  0  0  0  0  0  0  0  0  0
    0.0000    0.0000    0.0000 H   0  0  0  0  0  0  0  0  0  0  0  0
    0.0000    0.0000    0.0000 H   0  0  0  0  0  0  0  0  0  0  0  0
    0.0000    0.0000    0.0000 H   0  0  0  0  0  0  0  0  0  0  0  0
    0.0000    0.0000    0.0000 H   0  0  0  0  0  0  0  0  0  0  0  0
    0.0000    0.0000    0.0000 H   0  0  0  0  0  0  0  0  0  0  0  0
  1  2  1  0
  2  3  1  0
  3  8  2  0
  3  4  1  0
  4  5  2  0
  5  6  1  0
  6  7  2  0
  7  8  1  0
  8  9  1  0
  7 10  1  0
 10 11  1  0
  6 12  1  0
  5 13  1  0
 13 14  2  0
  1 15  1  0
  1 16  1  0
  1 17  1  0
  4 18  1  0
  9 19  1  0
 11 20  1  0
 11 21  1  0
 11 22  1  0
 13 23  1  0
M  END
>  <partial_charges>  (15) 
0.108599998057
-0.341600000858
-0.00279999990016
-0.0496000014246
-0.20909999311
0.0645999982953
0.0623999983072
0.138699993491
-0.474000006914
-0.312599986792
0.113099999726
-0.0601999983191
0.580699980259
-0.516399979591
0.0456000007689
0.0456000007689
0.0456000007689
0.170800000429
0.438300013542
0.0454999990761
0.0454999990761
0.0454999990761
0.0159000009298

>  <partial_bond_orders>  (15) 
1.0
1.0
2.0
1.0
2.0
1.0
2.0
1.0
1.0
1.0
1.0
1.0
1.0
2.0
1.0
1.0
1.0
1.0
1.0
1.0
1.0
1.0
1.0

>  <atom_types>  (15) 
c3
os
ca
ca
ca
ca
ca
ca
oh
os
c3
cl
c
o
h1
h1
h1
ha
ho
h1
h1
h1
h4

>  <target>  (15) 
-7.78

>  <cal>  (15) 
-8.292

$$$$
mobley_4465023
     RDKit          3D

  6  5  0  0  0  0  0  0  0  0999 V2000
   -0.0950    0.5820    0.3080 C   0  0  0  0  0  0  0  0  0  0  0  0
    0.0950   -0.5820   -0.3080 C   0  0  0  0  0  0  0  0  0  0  0  0
   -0.5770   -0.9360   -1.8430 Cl  0  0  0  0  0  0  0  0  0  0  0  0
   -1.0310    1.8460   -0.3700 Cl  0  0  0  0  0  0  0  0  0  0  0  0
    0.0000    0.0000    0.0000 H   0  0  0  0  0  0  0  0  0  0  0  0
    0.0000    0.0000    0.0000 H   0  0  0  0  0  0  0  0  0  0  0  0
  1  2  2  0
  2  3  1  0
  1  4  1  0
  1  5  1  0
  2  6  1  0
M  END
>  <partial_charges>  (16) 
-0.0737999975681
-0.0737999975681
-0.0868000015616
-0.0868000015616
0.16060000658
0.16060000658

>  <partial_bond_orders>  (16) 
2.0
1.0
1.0
1.0
1.0

>  <atom_types>  (16) 
c2
c2
cl
cl
h4
h4

>  <target>  (16) 
-1.17

>  <cal>  (16) 
1.156

$$$$
mobley_3777264
     RDKit          3D

 16 16  0  0  0  0  0  0  0  0999 V2000
    1.8850   -1.0360   -0.1120 C   0  0  0  0  0  0  0  0  0  0  0  0
    2.9210   -1.6310    0.6080 C   0  0  0  0  0  0  0  0  0  0  0  0
    2.8780   -1.6520    2.0020 C   0  0  0  0  0  0  0  0  0  0  0  0
    1.8000   -1.0790    2.6760 C   0  0  0  0  0  0  0  0  0  0  0  0
    0.7640   -0.4840    1.9550 C   0  0  0  0  0  0  0  0  0  0  0  0
    0.8070   -0.4630    0.5610 C   0  0  0  0  0  0  0  0  0  0  0  0
   -0.3340    0.1010    2.6400 N   0  0  0  0  0  0  0  0  0  0  0  0
   -1.2550    0.6300    1.9710 O   0  0  0  0  0  0  0  0  0  0  0  0
   -0.3540    0.0730    3.8940 O   0  0  0  0  0  0  0  0  0  0  0  0
    3.9250   -2.2540    2.7310 N   0  0  0  0  0  0  0  0  0  0  0  0
    0.0000    0.0000    0.0000 H   0  0  0  0  0  0  0  0  0  0  0  0
    0.0000    0.0000    0.0000 H   0  0  0  0  0  0  0  0  0  0  0  0
    0.0000    0.0000    0.0000 H   0  0  0  0  0  0  0  0  0  0  0  0
    0.0000    0.0000    0.0000 H   0  0  0  0  0  0  0  0  0  0  0  0
    0.0000    0.0000    0.0000 H   0  0  0  0  0  0  0  0  0  0  0  0
    0.0000    0.0000    0.0000 H   0  0  0  0  0  0  0  0  0  0  0  0
  1  6  2  0
  1  2  1  0
  2  3  2  0
  3  4  1  0
  4  5  2  0
  5  6  1  0
  5  7  1  0
  7  8  1  0
  7  9  1  0
  3 10  1  0
  1 11  1  0
  2 12  1  0
  4 13  1  0
  6 14  1  0
 10 15  1  0
 10 16  1  0
M  CHG  2   8  -1   9  -1
M  END
>  <partial_charges>  (17) 
-0.0992999970913
-0.158899992704
0.146799996495
-0.144099995494
-0.131300002337
-0.115500003099
0.308800011873
-0.208399996161
-0.208399996161
-0.825100004673
0.146999999881
0.141699999571
0.170100003481
0.170699998736
0.402999997139
0.402999997139

>  <partial_bond_orders>  (17) 
2.0
1.0
2.0
1.0
2.0
1.0
1.0
1.0
1.0
1.0
1.0
1.0
1.0
1.0
1.0
1.0

>  <atom_types>  (17) 
ca
ca
ca
ca
ca
ca
no
o
o
nh
ha
ha
ha
ha
hn
hn

>  <target>  (17) 
-8.84

>  <cal>  (17) 
-8.204

$$$$
mobley_820789
     RDKit          3D

 14 13  0  0  0  0  0  0  0  0999 V2000
    0.6080   -0.7280    0.5470 C   0  0  0  0  0  0  0  0  0  0  0  0
   -0.1900   -1.3680    1.6740 C   0  0  0  0  0  0  0  0  0  0  0  0
   -0.7520   -0.3450    2.6540 C   0  0  0  0  0  0  0  0  0  0  0  0
   -1.5390   -1.0020    3.7610 C   0  0  0  0  0  0  0  0  0  0  0  0
   -1.7020   -2.2120    3.8550 O   0  0  0  0  0  0  0  0  0  0  0  0
   -2.0270   -0.1140    4.6610 O   0  0  0  0  0  0  0  0  0  0  0  0
    0.0000    0.0000    0.0000 H   0  0  0  0  0  0  0  0  0  0  0  0
    0.0000    0.0000    0.0000 H   0  0  0  0  0  0  0  0  0  0  0  0
    0.0000    0.0000    0.0000 H   0  0  0  0  0  0  0  0  0  0  0  0
    0.0000    0.0000    0.0000 H   0  0  0  0  0  0  0  0  0  0  0  0
    0.0000    0.0000    0.0000 H   0  0  0  0  0  0  0  0  0  0  0  0
    0.0000    0.0000    0.0000 H   0  0  0  0  0  0  0  0  0  0  0  0
    0.0000    0.0000    0.0000 H   0  0  0  0  0  0  0  0  0  0  0  0
    0.0000    0.0000    0.0000 H   0  0  0  0  0  0  0  0  0  0  0  0
  1  2  1  0
  2  3  1  0
  3  4  1  0
  4  5  2  0
  4  6  1  0
  1  7  1  0
  1  8  1  0
  1  9  1  0
  2 10  1  0
  2 11  1  0
  3 12  1  0
  3 13  1  0
  6 14  1  0
M  END
>  <partial_charges>  (18) 
0.117899999022
0.0785999968648
0.028599999845
0.329100012779
-0.188999995589
-0.291099995375
-0.0392999984324
-0.0392999984324
-0.0392999984324
-0.0392999984324
-0.0392999984324
-0.0392999984324
-0.0392999984324
0.201000005007

>  <partial_bond_orders>  (18) 
1.0
1.0
1.0
2.0
1.0
1.0
1.0
1.0
1.0
1.0
1.0
1.0
1.0

>  <atom_types>  (18) 
c3
c3
c3
c
o
oh
hc
hc
hc
hc
hc
hc
hc
ho

>  <target>  (18) 
-6.35

>  <cal>  (18) 
-9.434

$$$$
mobley_1929982
     RDKit          3D

  3  2  0  0  0  0  0  0  0  0999 V2000
    0.0510    0.6040    0.0910 S   0  0  0  0  0  0  0  0  0  0  0  0
    0.0000    0.0000    0.0000 H   0  0  0  0  0  0  0  0  0  0  0  0
    0.0000    0.0000    0.0000 H   0  0  0  0  0  0  0  0  0  0  0  0
  1  2  1  0
  1  3  1  0
M  END
>  <partial_charges>  (19) 
-0.440499991179
0.220300003886
0.220300003886

>  <partial_bond_orders>  (19) 
1.0
1.0

>  <atom_types>  (19) 
sh
hs
hs

>  <target>  (19) 
-0.7

>  <cal>  (19) 
-1.135

$$$$
mobley_2492140
     RDKit          3D

  8  7  0  0  0  0  0  0  0  0999 V2000
   -0.4800    0.4780    0.4150 C   0  0  0  0  0  0  0  0  0  0  0  0
    0.4190   -0.5370   -0.3190 C   0  0  0  0  0  0  0  0  0  0  0  0
   -0.5170   -1.8890   -1.0360 Cl  0  0  0  0  0  0  0  0  0  0  0  0
    1.3380    0.2740   -1.6380 Cl  0  0  0  0  0  0  0  0  0  0  0  0
    1.6370   -1.2320    0.8100 Cl  0  0  0  0  0  0  0  0  0  0  0  0
    0.4470    1.8340    1.1360 Cl  0  0  0  0  0  0  0  0  0  0  0  0
   -1.7450    1.1810   -0.6440 Cl  0  0  0  0  0  0  0  0  0  0  0  0
    0.0000    0.0000    0.0000 H   0  0  0  0  0  0  0  0  0  0  0  0
  1  2  1  0
  2  3  1  0
  2  4  1  0
  2  5  1  0
  1  6  1  0
  1  7  1  0
  1  8  1  0
M  END
>  <partial_charges>  (20) 
0.116700001061
0.228300005198
-0.0874999985099
-0.0874999985099
-0.0874999985099
-0.102700002491
-0.102700002491
0.123000003397

>  <partial_bond_orders>  (20) 
1.0
1.0
1.0
1.0
1.0
1.0
1.0

>  <atom_types>  (20) 
c3
c3
cl
cl
cl
cl
cl
h2

>  <target>  (20) 
-1.23

>  <cal>  (20) 
0.059

$$$$
mobley_6733657
     RDKit          3D

 24 26  0  0  1  0  0  0  0  0999 V2000
    1.2140    2.6220    0.1990 C   0  0  0  0  0  0  0  0  0  0  0  0
    0.1790    2.2150    1.2360 C   0  0  0  0  0  0  0  0  0  0  0  0
   -0.0000    0.6860    1.1680 C   0  0  0  0  0  0  0  0  0  0  0  0
    1.2880    0.1480    0.3920 C   0  0  0  0  0  0  0  0  0  0  0  0
    2.1180    1.4060    0.0690 C   0  0  0  0  0  0  0  0  0  0  0  0
    3.0280    1.4330   -1.4440 Cl  0  0  0  0  0  0  0  0  0  0  0  0
    0.6530   -0.8640   -0.6370 C   0  0  0  0  0  0  0  0  0  0  0  0
    0.1490   -1.9980    0.2550 C   0  0  0  0  0  0  0  0  0  0  0  0
   -0.9310   -1.5480    0.9050 C   0  0  0  0  0  0  0  0  0  0  0  0
   -1.1650   -0.1040    0.4570 C   0  0  0  0  0  0  0  0  0  0  0  0
   -0.7270   -0.2600   -1.0280 C   0  0  0  0  0  0  0  0  0  0  0  0
   -1.7800   -1.3940   -1.9900 Cl  0  0  0  0  0  0  0  0  0  0  0  0
   -0.6860    1.2260   -1.9910 Cl  0  0  0  0  0  0  0  0  0  0  0  0
   -2.8110    0.4480    0.6980 Cl  0  0  0  0  0  0  0  0  0  0  0  0
   -1.8280   -2.3410    2.1040 Cl  0  0  0  0  0  0  0  0  0  0  0  0
    0.9270   -3.4920    0.4450 Cl  0  0  0  0  0  0  0  0  0  0  0  0
    1.6380   -1.4090   -1.9800 Cl  0  0  0  0  0  0  0  0  0  0  0  0
   -1.2660    3.2250    1.1400 Cl  0  0  0  0  0  0  0  0  0  0  0  0
    0.0000    0.0000    0.0000 H   0  0  0  0  0  0  0  0  0  0  0  0
    0.0000    0.0000    0.0000 H   0  0  0  0  0  0  0  0  0  0  0  0
    0.0000    0.0000    0.0000 H   0  0  0  0  0  0  0  0  0  0  0  0
    0.0000    0.0000    0.0000 H   0  0  0  0  0  0  0  0  0  0  0  0
    0.0000    0.0000    0.0000 H   0  0  0  0  0  0  0  0  0  0  0  0
    0.0000    0.0000    0.0000 H   0  0  0  0  0  0  0  0  0  0  0  0
  1  5  1  0
  1  2  1  0
  2  3  1  0
  3 10  1  0
  3  4  1  0
  4  5  1  0
  5  6  1  0
  4  7  1  0
  7 11  1  0
  7  8  1  0
  8  9  2  0
  9 10  1  0
 10 11  1  0
 11 12  1  0
 11 13  1  0
 10 14  1  0
  9 15  1  0
  8 16  1  0
  7 17  1  0
  2 18  1  0
  1 19  1  0
  1 20  1  0
  2 21  1  0
  3 22  1  0
  4 23  1  0
  5 24  1  0
M  END
>  <partial_charges>  (21) 
-0.0996000021696
0.054999999702
0.0754999965429
-0.0680999979377
0.0829000025988
-0.0680999979377
0.0829000025988
0.054999999702
0.0754999965429
-0.143000006676
0.0891000032425
-0.0447000004351
-0.0447000004351
0.0891000032425
0.138899996877
-0.0868000015616
-0.0868000015616
-0.0579999983311
-0.00289999996312
-0.00289999996312
-0.0579999983311
-0.143000006676
0.0813999995589
0.0813999995589

>  <partial_bond_orders>  (21) 
1.0
1.0
1.0
1.0
1.0
1.0
1.0
1.0
1.0
1.0
1.0
1.0
1.0
1.0
2.0
1.0
1.0
1.0
1.0
1.0
1.0
1.0
1.0
1.0
1.0
1.0

>  <atom_types>  (21) 
c3
c3
h1
c3
hc
c3
hc
c3
h1
cl
c3
c2
c2
c3
c3
cl
cl
cl
cl
cl
cl
cl
hc
hc

>  <target>  (21) 
-3.44

>  <cal>  (21) 
-3.23

$$$$
mobley_3006808
     RDKit          3D

  9  8  0  0  0  0  0  0  0  0999 V2000
    0.7720   -0.3320    0.7000 C   0  0  0  0  0  0  0  0  0  0  0  0
    1.3430    0.8420    1.4540 C   0  0  0  0  0  0  0  0  0  0  0  0
    1.8880    1.7360    0.6000 F   0  0  0  0  0  0  0  0  0  0  0  0
    2.3080    0.4510    2.3120 F   0  0  0  0  0  0  0  0  0  0  0  0
    0.3870    1.4810    2.1610 F   0  0  0  0  0  0  0  0  0  0  0  0
    1.8120   -0.9630   -0.0310 O   0  0  0  0  0  0  0  0  0  0  0  0
    0.0000    0.0000    0.0000 H   0  0  0  0  0  0  0  0  0  0  0  0
    0.0000    0.0000    0.0000 H   0  0  0  0  0  0  0  0  0  0  0  0
    0.0000    0.0000    0.0000 H   0  0  0  0  0  0  0  0  0  0  0  0
  1  2  1  0
  2  3  1  0
  2  4  1  0
  2  5  1  0
  1  6  1  0
  1  7  1  0
  1  8  1  0
  6  9  1  0
M  END
>  <partial_charges>  (22) 
0.0947000011802
0.63220000267
-0.23219999671
-0.23219999671
-0.23219999671
-0.577300012112
0.0628999993205
0.0628999993205
0.421000003815

>  <partial_bond_orders>  (22) 
1.0
1.0
1.0
1.0
1.0
1.0
1.0
1.0

>  <atom_types>  (22) 
c3
c3
f
f
f
oh
h1
h1
ho

>  <target>  (22) 
-4.31

>  <cal>  (22) 
-3.809

$$$$
mobley_902954
     RDKit          3D

 17 16  0  0  0  0  0  0  0  0999 V2000
    0.3900   -1.0210   -0.0850 C   0  0  0  0  0  0  0  0  0  0  0  0
   -0.5800   -2.0240    0.5200 C   0  0  0  0  0  0  0  0  0  0  0  0
   -1.9310   -1.9920   -0.1890 C   0  0  0  0  0  0  0  0  0  0  0  0
   -2.9050   -2.9950    0.4140 C   0  0  0  0  0  0  0  0  0  0  0  0
   -4.1380   -2.9160   -0.2880 O   0  0  0  0  0  0  0  0  0  0  0  0
   -5.1270   -3.8160    0.1970 N   0  0  0  0  0  0  0  0  0  0  0  0
   -4.8200   -4.5460    1.1420 O   0  0  0  0  0  0  0  0  0  0  0  0
   -6.1900   -3.7370   -0.4200 O   0  0  0  0  0  0  0  0  0  0  0  0
    0.0000    0.0000    0.0000 H   0  0  0  0  0  0  0  0  0  0  0  0
    0.0000    0.0000    0.0000 H   0  0  0  0  0  0  0  0  0  0  0  0
    0.0000    0.0000    0.0000 H   0  0  0  0  0  0  0  0  0  0  0  0
    0.0000    0.0000    0.0000 H   0  0  0  0  0  0  0  0  0  0  0  0
    0.0000    0.0000    0.0000 H   0  0  0  0  0  0  0  0  0  0  0  0
    0.0000    0.0000    0.0000 H   0  0  0  0  0  0  0  0  0  0  0  0
    0.0000    0.0000    0.0000 H   0  0  0  0  0  0  0  0  0  0  0  0
    0.0000    0.0000    0.0000 H   0  0  0  0  0  0  0  0  0  0  0  0
    0.0000    0.0000    0.0000 H   0  0  0  0  0  0  0  0  0  0  0  0
  1  2  1  0
  2  3  1  0
  3  4  1  0
  4  5  1  0
  5  6  1  0
  6  7  1  0
  6  8  1  0
  1  9  1  0
  1 10  1  0
  1 11  1  0
  2 12  1  0
  2 13  1  0
  3 14  1  0
  3 15  1  0
  4 16  1  0
  4 17  1  0
M  CHG  2   7  -1   8  -1
M  END
>  <partial_charges>  (23) 
-0.097000002861
-0.0813999995589
-0.0813999995589
0.132400006056
-0.348500013351
0.377000004053
-0.184599995613
-0.184599995613
0.0359000004828
0.0359000004828
0.0359000004828
0.0527999997139
0.0527999997139
0.0601000003517
0.0601000003517
0.0672999992967
0.0672999992967

>  <partial_bond_orders>  (23) 
1.0
1.0
1.0
1.0
1.0
1.0
1.0
1.0
1.0
1.0
1.0
1.0
1.0
1.0
1.0
1.0

>  <atom_types>  (23) 
c3
c3
c3
c3
os
no
o
o
hc
hc
hc
hc
hc
hc
hc
h1
h1

>  <target>  (23) 
-2.09

>  <cal>  (23) 
-1.938

$$$$
mobley_9434451
     RDKit          3D

 11 10  0  0  0  0  0  0  0  0999 V2000
    0.9470   -0.8500   -0.2270 C   0  0  0  0  0  0  0  0  0  0  0  0
    0.2930    0.4590    0.1800 C   0  0  0  0  0  0  0  0  0  0  0  0
   -1.2210    0.3520    0.2380 C   0  0  0  0  0  0  0  0  0  0  0  0
    0.7810    1.8410   -1.1160 Br  0  0  0  0  0  0  0  0  0  0  0  0
    0.0000    0.0000    0.0000 H   0  0  0  0  0  0  0  0  0  0  0  0
    0.0000    0.0000    0.0000 H   0  0  0  0  0  0  0  0  0  0  0  0
    0.0000    0.0000    0.0000 H   0  0  0  0  0  0  0  0  0  0  0  0
    0.0000    0.0000    0.0000 H   0  0  0  0  0  0  0  0  0  0  0  0
    0.0000    0.0000    0.0000 H   0  0  0  0  0  0  0  0  0  0  0  0
    0.0000    0.0000    0.0000 H   0  0  0  0  0  0  0  0  0  0  0  0
    0.0000    0.0000    0.0000 H   0  0  0  0  0  0  0  0  0  0  0  0
  1  2  1  0
  2  3  1  0
  2  4  1  0
  1  5  1  0
  1  6  1  0
  1  7  1  0
  2  8  1  0
  3  9  1  0
  3 10  1  0
  3 11  1  0
M  END
>  <partial_charges>  (24) 
-0.0961999967694
0.0228000003844
-0.0961999967694
-0.19619999826
0.0483999997377
0.0483999997377
0.0483999997377
0.0754999965429
0.0483999997377
0.0483999997377
0.0483999997377

>  <partial_bond_orders>  (24) 
1.0
1.0
1.0
1.0
1.0
1.0
1.0
1.0
1.0
1.0

>  <atom_types>  (24) 
c3
c3
c3
br
hc
hc
hc
h1
hc
hc
hc

>  <target>  (24) 
-0.48

>  <cal>  (24) 
0.448

$$$$
mobley_6688723
     RDKit          3D

 21 21  0  0  0  0  0  0  0  0999 V2000
    1.3120   -2.1090   -2.1510 C   0  0  0  0  0  0  0  0  0  0  0  0
    1.9130   -1.0100   -1.4760 O   0  0  0  0  0  0  0  0  0  0  0  0
    1.8850   -1.0360   -0.1120 C   0  0  0  0  0  0  0  0  0  0  0  0
    2.9210   -1.6310    0.6080 C   0  0  0  0  0  0  0  0  0  0  0  0
    2.8780   -1.6520    2.0020 C   0  0  0  0  0  0  0  0  0  0  0  0
    1.8000   -1.0790    2.6760 C   0  0  0  0  0  0  0  0  0  0  0  0
    0.7640   -0.4840    1.9550 C   0  0  0  0  0  0  0  0  0  0  0  0
    0.8070   -0.4630    0.5610 C   0  0  0  0  0  0  0  0  0  0  0  0
   -0.2060    0.1190   -0.1430 O   0  0  0  0  0  0  0  0  0  0  0  0
   -0.2980    0.0810    2.6000 O   0  0  0  0  0  0  0  0  0  0  0  0
   -1.4140   -0.7640    2.8700 C   0  0  0  0  0  0  0  0  0  0  0  0
    1.7740   -1.1190    4.4000 Cl  0  0  0  0  0  0  0  0  0  0  0  0
    4.2670   -2.3490   -0.1980 Cl  0  0  0  0  0  0  0  0  0  0  0  0
    0.0000    0.0000    0.0000 H   0  0  0  0  0  0  0  0  0  0  0  0
    0.0000    0.0000    0.0000 H   0  0  0  0  0  0  0  0  0  0  0  0
    0.0000    0.0000    0.0000 H   0  0  0  0  0  0  0  0  0  0  0  0
    0.0000    0.0000    0.0000 H   0  0  0  0  0  0  0  0  0  0  0  0
    0.0000    0.0000    0.0000 H   0  0  0  0  0  0  0  0  0  0  0  0
    0.0000    0.0000    0.0000 H   0  0  0  0  0  0  0  0  0  0  0  0
    0.0000    0.0000    0.0000 H   0  0  0  0  0  0  0  0  0  0  0  0
    0.0000    0.0000    0.0000 H   0  0  0  0  0  0  0  0  0  0  0  0
  1  2  1  0
  2  3  1  0
  3  8  2  0
  3  4  1  0
  4  5  2  0
  5  6  1  0
  6  7  2  0
  7  8  1  0
  8  9  1  0
  7 10  1  0
 10 11  1  0
  6 12  1  0
  4 13  1  0
  1 14  1  0
  1 15  1  0
  1 16  1  0
  5 17  1  0
  9 18  1  0
 11 19  1  0
 11 20  1  0
 11 21  1  0
M  END
>  <partial_charges>  (25) 
0.111599996686
-0.326200008392
0.0445999987423
0.0384000018239
-0.144500002265
0.0384000018239
0.0445999987423
0.122500002384
-0.476000010967
-0.326200008392
0.111599996686
-0.0612999983132
-0.0612999983132
0.0465000011027
0.0465000011027
0.0465000011027
0.166700005531
0.438499987125
0.0465000011027
0.0465000011027
0.0465000011027

>  <partial_bond_orders>  (25) 
1.0
1.0
2.0
1.0
2.0
1.0
2.0
1.0
1.0
1.0
1.0
1.0
1.0
1.0
1.0
1.0
1.0
1.0
1.0
1.0
1.0

>  <atom_types>  (25) 
c3
os
ca
ca
ca
ca
ca
ca
oh
os
c3
cl
cl
h1
h1
h1
ha
ho
h1
h1
h1

>  <target>  (25) 
-6.44

>  <cal>  (25) 
-5.98

$$$$
mobley_1923244
     RDKit          3D

 14 13  0  0  0  0  0  0  0  0999 V2000
    0.4050   -0.7300    0.7080 C   0  0  0  0  0  0  0  0  0  0  0  0
    1.6370   -0.1820    1.4100 C   0  0  0  0  0  0  0  0  0  0  0  0
    1.3160    1.0890    2.1950 C   0  0  0  0  0  0  0  0  0  0  0  0
    2.5480    1.6360    2.8960 C   0  0  0  0  0  0  0  0  0  0  0  0
    0.0000    0.0000    0.0000 H   0  0  0  0  0  0  0  0  0  0  0  0
    0.0000    0.0000    0.0000 H   0  0  0  0  0  0  0  0  0  0  0  0
    0.0000    0.0000    0.0000 H   0  0  0  0  0  0  0  0  0  0  0  0
    0.0000    0.0000    0.0000 H   0  0  0  0  0  0  0  0  0  0  0  0
    0.0000    0.0000    0.0000 H   0  0  0  0  0  0  0  0  0  0  0  0
    0.0000    0.0000    0.0000 H   0  0  0  0  0  0  0  0  0  0  0  0
    0.0000    0.0000    0.0000 H   0  0  0  0  0  0  0  0  0  0  0  0
    0.0000    0.0000    0.0000 H   0  0  0  0  0  0  0  0  0  0  0  0
    0.0000    0.0000    0.0000 H   0  0  0  0  0  0  0  0  0  0  0  0
    0.0000    0.0000    0.0000 H   0  0  0  0  0  0  0  0  0  0  0  0
  1  2  1  0
  2  3  1  0
  3  4  1  0
  1  5  1  0
  1  6  1  0
  1  7  1  0
  2  8  1  0
  2  9  1  0
  3 10  1  0
  3 11  1  0
  4 12  1  0
  4 13  1  0
  4 14  1  0
M  END
>  <partial_charges>  (26) 
-0.0921000018716
-0.0804999992251
-0.0804999992251
-0.0921000018716
0.0324000008404
0.0324000008404
0.0324000008404
0.0377000011504
0.0377000011504
0.0377000011504
0.0377000011504
0.0324000008404
0.0324000008404
0.0324000008404

>  <partial_bond_orders>  (26) 
1.0
1.0
1.0
1.0
1.0
1.0
1.0
1.0
1.0
1.0
1.0
1.0
1.0

>  <atom_types>  (26) 
c3
c3
c3
c3
hc
hc
hc
hc
hc
hc
hc
hc
hc
hc

>  <target>  (26) 
2.1

>  <cal>  (26) 
2.588

$$$$
mobley_9201263
     RDKit          3D

 12 11  0  0  0  0  0  0  0  0999 V2000
    0.9320   -0.5580    0.2000 C   0  0  0  0  0  0  0  0  0  0  0  0
    1.9820    0.3850    0.3490 O   0  0  0  0  0  0  0  0  0  0  0  0
    3.4450   -0.1410    0.8490 S   0  0  0  0  0  0  0  0  0  0  0  0
    3.9560   -1.1140   -0.0960 O   0  0  0  0  0  0  0  0  0  0  0  0
    3.4010   -0.4040    2.2730 O   0  0  0  0  0  0  0  0  0  0  0  0
    4.3140    1.3850    0.5950 C   0  0  0  0  0  0  0  0  0  0  0  0
    0.0000    0.0000    0.0000 H   0  0  0  0  0  0  0  0  0  0  0  0
    0.0000    0.0000    0.0000 H   0  0  0  0  0  0  0  0  0  0  0  0
    0.0000    0.0000    0.0000 H   0  0  0  0  0  0  0  0  0  0  0  0
    0.0000    0.0000    0.0000 H   0  0  0  0  0  0  0  0  0  0  0  0
    0.0000    0.0000    0.0000 H   0  0  0  0  0  0  0  0  0  0  0  0
    0.0000    0.0000    0.0000 H   0  0  0  0  0  0  0  0  0  0  0  0
  1  2  1  0
  2  3  1  0
  3  4  2  0
  3  5  2  0
  3  6  1  0
  1  7  1  0
  1  8  1  0
  1  9  1  0
  6 10  1  0
  6 11  1  0
  6 12  1  0
M  END
>  <partial_charges>  (27) 
0.1643999964
-0.576300024986
1.59969997406
-0.666000008583
-0.666000008583
-0.382800012827
0.0458999983966
0.0458999983966
0.0458999983966
0.129899993539
0.129899993539
0.129899993539

>  <partial_bond_orders>  (27) 
1.0
1.0
2.0
2.0
1.0
1.0
1.0
1.0
1.0
1.0
1.0

>  <atom_types>  (27) 
c3
os
s6
o
o
c3
h1
h1
h1
h1
h1
h1

>  <target>  (27) 
-4.87

>  <cal>  (27) 
-8.824

$$$$
mobley_9942801
     RDKit          3D

 21 21  0  0  0  0  0  0  0  0999 V2000
    1.2660   -2.2400   -2.2080 C   0  0  0  0  0  0  0  0  0  0  0  0
    1.9310   -1.0130   -1.6030 C   0  0  0  0  0  0  0  0  0  0  0  0
    1.8850   -1.0360   -0.1120 C   0  0  0  0  0  0  0  0  0  0  0  0
    2.9210   -1.6310    0.6080 C   0  0  0  0  0  0  0  0  0  0  0  0
    2.8780   -1.6520    2.0020 C   0  0  0  0  0  0  0  0  0  0  0  0
    1.8000   -1.0790    2.6760 C   0  0  0  0  0  0  0  0  0  0  0  0
    0.7640   -0.4840    1.9550 C   0  0  0  0  0  0  0  0  0  0  0  0
    0.8070   -0.4630    0.5610 C   0  0  0  0  0  0  0  0  0  0  0  0
    1.7530   -1.1040    4.1660 C   0  0  0  0  0  0  0  0  0  0  0  0
    0.0000    0.0000    0.0000 H   0  0  0  0  0  0  0  0  0  0  0  0
    0.0000    0.0000    0.0000 H   0  0  0  0  0  0  0  0  0  0  0  0
    0.0000    0.0000    0.0000 H   0  0  0  0  0  0  0  0  0  0  0  0
    0.0000    0.0000    0.0000 H   0  0  0  0  0  0  0  0  0  0  0  0
    0.0000    0.0000    0.0000 H   0  0  0  0  0  0  0  0  0  0  0  0
    0.0000    0.0000    0.0000 H   0  0  0  0  0  0  0  0  0  0  0  0
    0.0000    0.0000    0.0000 H   0  0  0  0  0  0  0  0  0  0  0  0
    0.0000    0.0000    0.0000 H   0  0  0  0  0  0  0  0  0  0  0  0
    0.0000    0.0000    0.0000 H   0  0  0  0  0  0  0  0  0  0  0  0
    0.0000    0.0000    0.0000 H   0  0  0  0  0  0  0  0  0  0  0  0
    0.0000    0.0000    0.0000 H   0  0  0  0  0  0  0  0  0  0  0  0
    0.0000    0.0000    0.0000 H   0  0  0  0  0  0  0  0  0  0  0  0
  1  2  1  0
  2  3  1  0
  3  8  2  0
  3  4  1  0
  4  5  2  0
  5  6  1  0
  6  7  2  0
  7  8  1  0
  6  9  1  0
  1 10  1  0
  1 11  1  0
  1 12  1  0
  2 13  1  0
  2 14  1  0
  4 15  1  0
  5 16  1  0
  7 17  1  0
  8 18  1  0
  9 19  1  0
  9 20  1  0
  9 21  1  0
M  END
>  <partial_charges>  (28) 
-0.0888999998569
-0.0379999987781
-0.0815000012517
-0.124200001359
-0.128700003028
-0.0807000026107
-0.128700003028
-0.124200001359
-0.0531000010669
0.03579999879
0.03579999879
0.03579999879
0.0452999994159
0.0452999994159
0.13030000031
0.129999995232
0.129999995232
0.13030000031
0.0432000011206
0.0432000011206
0.0432000011206

>  <partial_bond_orders>  (28) 
1.0
1.0
2.0
1.0
2.0
1.0
2.0
1.0
1.0
1.0
1.0
1.0
1.0
1.0
1.0
1.0
1.0
1.0
1.0
1.0
1.0

>  <atom_types>  (28) 
c3
c3
ca
ca
ca
ca
ca
ca
c3
hc
hc
hc
hc
hc
ha
ha
ha
ha
hc
hc
hc

>  <target>  (28) 
-0.95

>  <cal>  (28) 
-0.575

$$$$
mobley_590519
     RDKit          3D

 16 15  0  0  0  0  0  0  0  0999 V2000
   -0.2790    0.2910   -0.1360 C   0  0  0  0  0  0  0  0  0  0  0  0
    0.8110   -0.6600    0.3190 C   0  0  0  0  0  0  0  0  0  0  0  0
    0.2410   -1.6600    1.7150 S   0  0  0  0  0  0  0  0  0  0  0  0
    1.8940   -2.8210    2.1000 S   0  0  0  0  0  0  0  0  0  0  0  0
    2.7900   -1.8010    3.2950 C   0  0  0  0  0  0  0  0  0  0  0  0
    4.0760   -2.4830    3.7270 C   0  0  0  0  0  0  0  0  0  0  0  0
    0.0000    0.0000    0.0000 H   0  0  0  0  0  0  0  0  0  0  0  0
    0.0000    0.0000    0.0000 H   0  0  0  0  0  0  0  0  0  0  0  0
    0.0000    0.0000    0.0000 H   0  0  0  0  0  0  0  0  0  0  0  0
    0.0000    0.0000    0.0000 H   0  0  0  0  0  0  0  0  0  0  0  0
    0.0000    0.0000    0.0000 H   0  0  0  0  0  0  0  0  0  0  0  0
    0.0000    0.0000    0.0000 H   0  0  0  0  0  0  0  0  0  0  0  0
    0.0000    0.0000    0.0000 H   0  0  0  0  0  0  0  0  0  0  0  0
    0.0000    0.0000    0.0000 H   0  0  0  0  0  0  0  0  0  0  0  0
    0.0000    0.0000    0.0000 H   0  0  0  0  0  0  0  0  0  0  0  0
    0.0000    0.0000    0.0000 H   0  0  0  0  0  0  0  0  0  0  0  0
  1  2  1  0
  2  3  1  0
  3  4  1  0
  4  5  1  0
  5  6  1  0
  1  7  1  0
  1  8  1  0
  1  9  1  0
  2 10  1  0
  2 11  1  0
  5 12  1  0
  5 13  1  0
  6 14  1  0
  6 15  1  0
  6 16  1  0
M  END
>  <partial_charges>  (29) 
-0.0954999998212
0.0120000001043
-0.21400000155
-0.21400000155
0.0120000001043
-0.0954999998212
0.0498000010848
0.0498000010848
0.0498000010848
0.0740000009537
0.0740000009537
0.0740000009537
0.0740000009537
0.0498000010848
0.0498000010848
0.0498000010848

>  <partial_bond_orders>  (29) 
1.0
1.0
1.0
1.0
1.0
1.0
1.0
1.0
1.0
1.0
1.0
1.0
1.0
1.0
1.0

>  <atom_types>  (29) 
c3
c3
ss
ss
c3
c3
hc
hc
hc
h1
h1
h1
h1
hc
hc
hc

>  <target>  (29) 
-1.64

>  <cal>  (29) 
-0.979

$$$$
mobley_6632459
     RDKit          3D

 10  9  0  0  0  0  0  0  0  0999 V2000
    0.4290   -0.8130    0.5960 C   0  0  0  0  0  0  0  0  0  0  0  0
   -0.6600   -1.6800    1.1970 C   0  0  0  0  0  0  0  0  0  0  0  0
   -1.5420   -2.3180    0.1520 C   0  0  0  0  0  0  0  0  0  0  0  0
   -1.4120   -2.1670   -1.0580 O   0  0  0  0  0  0  0  0  0  0  0  0
    0.0000    0.0000    0.0000 H   0  0  0  0  0  0  0  0  0  0  0  0
    0.0000    0.0000    0.0000 H   0  0  0  0  0  0  0  0  0  0  0  0
    0.0000    0.0000    0.0000 H   0  0  0  0  0  0  0  0  0  0  0  0
    0.0000    0.0000    0.0000 H   0  0  0  0  0  0  0  0  0  0  0  0
    0.0000    0.0000    0.0000 H   0  0  0  0  0  0  0  0  0  0  0  0
    0.0000    0.0000    0.0000 H   0  0  0  0  0  0  0  0  0  0  0  0
  1  2  1  0
  2  3  1  0
  3  4  2  0
  1  5  1  0
  1  6  1  0
  1  7  1  0
  2  8  1  0
  2  9  1  0
  3 10  1  0
M  END
>  <partial_charges>  (30) 
-0.0888999998569
-0.198500007391
0.561600029469
-0.522899985313
0.0434000007808
0.0434000007808
0.0434000007808
0.0652000010014
0.0652000010014
-0.0119000002742

>  <partial_bond_orders>  (30) 
1.0
1.0
2.0
1.0
1.0
1.0
1.0
1.0
1.0

>  <atom_types>  (30) 
c3
c3
c
o
hc
hc
hc
hc
hc
h4

>  <target>  (30) 
-3.43

>  <cal>  (30) 
-3.148

$$$$
mobley_9974966
     RDKit          3D

 21 20  0  0  0  0  0  0  0  0999 V2000
    0.8900    0.3280    2.7310 C   0  0  0  0  0  0  0  0  0  0  0  0
    1.2990    1.0060    1.4280 C   0  0  0  0  0  0  0  0  0  0  0  0
    0.9730    0.1340    0.2220 C   0  0  0  0  0  0  0  0  0  0  0  0
    0.4460    2.6110    1.2760 S   0  0  0  0  0  0  0  0  0  0  0  0
    1.5250    3.5750    2.3570 C   0  0  0  0  0  0  0  0  0  0  0  0
    2.7980    3.9850    1.6120 C   0  0  0  0  0  0  0  0  0  0  0  0
    0.7860    4.8070    2.8850 C   0  0  0  0  0  0  0  0  0  0  0  0
    0.0000    0.0000    0.0000 H   0  0  0  0  0  0  0  0  0  0  0  0
    0.0000    0.0000    0.0000 H   0  0  0  0  0  0  0  0  0  0  0  0
    0.0000    0.0000    0.0000 H   0  0  0  0  0  0  0  0  0  0  0  0
    0.0000    0.0000    0.0000 H   0  0  0  0  0  0  0  0  0  0  0  0
    0.0000    0.0000    0.0000 H   0  0  0  0  0  0  0  0  0  0  0  0
    0.0000    0.0000    0.0000 H   0  0  0  0  0  0  0  0  0  0  0  0
    0.0000    0.0000    0.0000 H   0  0  0  0  0  0  0  0  0  0  0  0
    0.0000    0.0000    0.0000 H   0  0  0  0  0  0  0  0  0  0  0  0
    0.0000    0.0000    0.0000 H   0  0  0  0  0  0  0  0  0  0  0  0
    0.0000    0.0000    0.0000 H   0  0  0  0  0  0  0  0  0  0  0  0
    0.0000    0.0000    0.0000 H   0  0  0  0  0  0  0  0  0  0  0  0
    0.0000    0.0000    0.0000 H   0  0  0  0  0  0  0  0  0  0  0  0
    0.0000    0.0000    0.0000 H   0  0  0  0  0  0  0  0  0  0  0  0
    0.0000    0.0000    0.0000 H   0  0  0  0  0  0  0  0  0  0  0  0
  1  2  1  0
  2  3  1  0
  2  4  1  0
  4  5  1  0
  5  6  1  0
  5  7  1  0
  1  8  1  0
  1  9  1  0
  1 10  1  0
  2 11  1  0
  3 12  1  0
  3 13  1  0
  3 14  1  0
  5 15  1  0
  6 16  1  0
  6 17  1  0
  6 18  1  0
  7 19  1  0
  7 20  1  0
  7 21  1  0
M  END
>  <partial_charges>  (31) 
-0.0859000012279
0.022199999541
-0.0859000012279
-0.340600013733
0.022199999541
-0.0859000012279
-0.0859000012279
0.0430999994278
0.0430999994278
0.0430999994278
0.0615000016987
0.0430999994278
0.0430999994278
0.0430999994278
0.0615000016987
0.0430999994278
0.0430999994278
0.0430999994278
0.0430999994278
0.0430999994278
0.0430999994278

>  <partial_bond_orders>  (31) 
1.0
1.0
1.0
1.0
1.0
1.0
1.0
1.0
1.0
1.0
1.0
1.0
1.0
1.0
1.0
1.0
1.0
1.0
1.0
1.0

>  <atom_types>  (31) 
c3
c3
c3
ss
c3
c3
c3
hc
hc
hc
h1
hc
hc
hc
h1
hc
hc
hc
hc
hc
hc

>  <target>  (31) 
-1.21

>  <cal>  (31) 
0.14

$$$$
mobley_6497672
     RDKit          3D

 11 10  0  0  0  0  0  0  0  0999 V2000
   -1.8800    0.8860   -0.7250 C   0  0  0  0  0  0  0  0  0  0  0  0
   -0.9450   -0.2510   -0.4750 C   0  0  0  0  0  0  0  0  0  0  0  0
   -1.2230   -1.5180   -0.8030 C   0  0  0  0  0  0  0  0  0  0  0  0
   -0.2300   -2.5700   -0.5140 C   0  0  0  0  0  0  0  0  0  0  0  0
   -0.4320   -3.7460   -0.7930 O   0  0  0  0  0  0  0  0  0  0  0  0
    0.0000    0.0000    0.0000 H   0  0  0  0  0  0  0  0  0  0  0  0
    0.0000    0.0000    0.0000 H   0  0  0  0  0  0  0  0  0  0  0  0
    0.0000    0.0000    0.0000 H   0  0  0  0  0  0  0  0  0  0  0  0
    0.0000    0.0000    0.0000 H   0  0  0  0  0  0  0  0  0  0  0  0
    0.0000    0.0000    0.0000 H   0  0  0  0  0  0  0  0  0  0  0  0
    0.0000    0.0000    0.0000 H   0  0  0  0  0  0  0  0  0  0  0  0
  1  2  1  0
  2  3  2  0
  3  4  1  0
  4  5  2  0
  1  6  1  0
  1  7  1  0
  1  8  1  0
  2  9  1  0
  3 10  1  0
  4 11  1  0
M  END
>  <partial_charges>  (32) 
-0.082999996841
-0.0905999988317
-0.276800006628
0.558099985123
-0.526000022888
0.0527999997139
0.0527999997139
0.0527999997139
0.121100001037
0.149700000882
-0.0109999999404

>  <partial_bond_orders>  (32) 
1.0
2.0
1.0
2.0
1.0
1.0
1.0
1.0
1.0
1.0

>  <atom_types>  (32) 
c3
c2
ce
c
o
hc
hc
hc
ha
ha
h4

>  <target>  (32) 
-4.22

>  <cal>  (32) 
-3.341

$$$$
mobley_8124669
     RDKit          3D

 38 38  0  0  0  0  0  0  0  0999 V2000
    3.2470   -1.3350   -0.3630 C   0  0  0  0  0  0  0  0  0  0  0  0
    2.2690   -2.4440   -0.0050 C   0  0  0  0  0  0  0  0  0  0  0  0
    1.9750   -2.4730    1.4600 C   0  0  0  0  0  0  0  0  0  0  0  0
    2.7790   -3.2550    2.2900 C   0  0  0  0  0  0  0  0  0  0  0  0
    2.5280   -3.3010    3.6620 C   0  0  0  0  0  0  0  0  0  0  0  0
    1.4740   -2.5650    4.2030 C   0  0  0  0  0  0  0  0  0  0  0  0
    0.6710   -1.7840    3.3730 C   0  0  0  0  0  0  0  0  0  0  0  0
    0.9210   -1.7380    2.0020 C   0  0  0  0  0  0  0  0  0  0  0  0
    0.0870   -0.9250    1.1400 N   0  0  0  0  0  0  0  0  0  0  0  0
    0.5050    0.4730    0.9210 C   0  0  0  0  0  0  0  0  0  0  0  0
   -0.5280    1.3420    1.3770 O   0  0  0  0  0  0  0  0  0  0  0  0
   -0.1830    2.7080    1.1920 C   0  0  0  0  0  0  0  0  0  0  0  0
   -1.0290   -1.4820    0.4680 C   0  0  0  0  0  0  0  0  0  0  0  0
   -1.7350   -0.8720   -0.3390 O   0  0  0  0  0  0  0  0  0  0  0  0
   -1.3510   -2.9220    0.8340 C   0  0  0  0  0  0  0  0  0  0  0  0
   -2.7640   -3.5030   -0.0720 Cl  0  0  0  0  0  0  0  0  0  0  0  0
   -0.4510   -1.0070    3.9830 C   0  0  0  0  0  0  0  0  0  0  0  0
   -0.0190    0.3910    4.4140 C   0  0  0  0  0  0  0  0  0  0  0  0
    0.0000    0.0000    0.0000 H   0  0  0  0  0  0  0  0  0  0  0  0
    0.0000    0.0000    0.0000 H   0  0  0  0  0  0  0  0  0  0  0  0
    0.0000    0.0000    0.0000 H   0  0  0  0  0  0  0  0  0  0  0  0
    0.0000    0.0000    0.0000 H   0  0  0  0  0  0  0  0  0  0  0  0
    0.0000    0.0000    0.0000 H   0  0  0  0  0  0  0  0  0  0  0  0
    0.0000    0.0000    0.0000 H   0  0  0  0  0  0  0  0  0  0  0  0
    0.0000    0.0000    0.0000 H   0  0  0  0  0  0  0  0  0  0  0  0
    0.0000    0.0000    0.0000 H   0  0  0  0  0  0  0  0  0  0  0  0
    0.0000    0.0000    0.0000 H   0  0  0  0  0  0  0  0  0  0  0  0
    0.0000    0.0000    0.0000 H   0  0  0  0  0  0  0  0  0  0  0  0
    0.0000    0.0000    0.0000 H   0  0  0  0  0  0  0  0  0  0  0  0
    0.0000    0.0000    0.0000 H   0  0  0  0  0  0  0  0  0  0  0  0
    0.0000    0.0000    0.0000 H   0  0  0  0  0  0  0  0  0  0  0  0
    0.0000    0.0000    0.0000 H   0  0  0  0  0  0  0  0  0  0  0  0
    0.0000    0.0000    0.0000 H   0  0  0  0  0  0  0  0  0  0  0  0
    0.0000    0.0000    0.0000 H   0  0  0  0  0  0  0  0  0  0  0  0
    0.0000    0.0000    0.0000 H   0  0  0  0  0  0  0  0  0  0  0  0
    0.0000    0.0000    0.0000 H   0  0  0  0  0  0  0  0  0  0  0  0
    0.0000    0.0000    0.0000 H   0  0  0  0  0  0  0  0  0  0  0  0
    0.0000    0.0000    0.0000 H   0  0  0  0  0  0  0  0  0  0  0  0
  1  2  1  0
  2  3  1  0
  3  8  2  0
  3  4  1  0
  4  5  2  0
  5  6  1  0
  6  7  2  0
  7  8  1  0
  8  9  1  0
  9 10  1  0
 10 11  1  0
 11 12  1  0
  9 13  1  0
 13 14  2  0
 13 15  1  0
 15 16  1  0
  7 17  1  0
 17 18  1  0
  1 19  1  0
  1 20  1  0
  1 21  1  0
  2 22  1  0
  2 23  1  0
  4 24  1  0
  5 25  1  0
  6 26  1  0
 10 27  1  0
 10 28  1  0
 12 29  1  0
 12 30  1  0
 12 31  1  0
 15 32  1  0
 15 33  1  0
 17 34  1  0
 17 35  1  0
 18 36  1  0
 18 37  1  0
 18 38  1  0
M  END
>  <partial_charges>  (33) 
-0.0917999967933
-0.0476000010967
-0.0606999993324
-0.136700004339
-0.115299999714
-0.136700004339
-0.0606999993324
0.0129000004381
-0.401699990034
0.298799991608
-0.442600011826
0.122699998319
0.666100025177
-0.561399996281
-0.0483000017703
-0.139799997211
-0.0476000010967
-0.0917999967933
0.0359000004828
0.0359000004828
0.0359000004828
0.0619000010192
0.0619000010192
0.138400003314
0.135900005698
0.138400003314
0.0570000000298
0.0570000000298
0.0348999984562
0.0348999984562
0.0348999984562
0.0940999984741
0.0940999984741
0.0619000010192
0.0619000010192
0.0359000004828
0.0359000004828
0.0359000004828

>  <partial_bond_orders>  (33) 
1.0
1.0
2.0
1.0
2.0
1.0
2.0
1.0
1.0
1.0
1.0
1.0
1.0
2.0
1.0
1.0
1.0
1.0
1.0
1.0
1.0
1.0
1.0
1.0
1.0
1.0
1.0
1.0
1.0
1.0
1.0
1.0
1.0
1.0
1.0
1.0
1.0
1.0

>  <atom_types>  (33) 
c3
c3
ca
ca
ca
ca
ca
ca
n
c3
os
c3
c
o
c3
cl
c3
c3
hc
hc
hc
hc
hc
ha
ha
ha
h2
h2
h1
h1
h1
h1
h1
hc
hc
hc
hc
hc

>  <target>  (33) 
-8.21

>  <cal>  (33) 
-6.851

$$$$
mobley_4039055
     RDKit          3D

 12 12  0  0  0  0  0  0  0  0999 V2000
   -0.0500    0.0350   -1.5040 C   0  0  0  0  0  0  0  0  0  0  0  0
    0.9380   -0.3920   -0.7090 C   0  0  0  0  0  0  0  0  0  0  0  0
    0.7460   -0.3240    0.7690 C   0  0  0  0  0  0  0  0  0  0  0  0
    1.6110   -0.6970    1.5570 O   0  0  0  0  0  0  0  0  0  0  0  0
   -0.4800    0.1930    1.1720 N   0  0  0  0  0  0  0  0  0  0  0  0
   -1.5070    0.6360    0.3370 C   0  0  0  0  0  0  0  0  0  0  0  0
   -2.5700    1.0830    0.7690 O   0  0  0  0  0  0  0  0  0  0  0  0
   -1.2280    0.5310   -1.0170 N   0  0  0  0  0  0  0  0  0  0  0  0
    2.5410   -1.0650   -1.3740 Br  0  0  0  0  0  0  0  0  0  0  0  0
    0.0000    0.0000    0.0000 H   0  0  0  0  0  0  0  0  0  0  0  0
    0.0000    0.0000    0.0000 H   0  0  0  0  0  0  0  0  0  0  0  0
    0.0000    0.0000    0.0000 H   0  0  0  0  0  0  0  0  0  0  0  0
  1  8  1  0
  1  2  2  0
  2  3  1  0
  3  4  2  0
  3  5  1  0
  5  6  1  0
  6  7  2  0
  6  8  1  0
  2  9  1  0
  1 10  1  0
  5 11  1  0
  8 12  1  0
M  END
>  <partial_charges>  (34) 
0.0791999995708
-0.24469999969
0.726400017738
-0.580999970436
-0.584200024605
0.803399980068
-0.625899970531
-0.464700013399
0.00079999997979
0.172299996018
0.358000010252
0.360300004482

>  <partial_bond_orders>  (34) 
1.0
2.0
1.0
2.0
1.0
1.0
2.0
1.0
1.0
1.0
1.0
1.0

>  <atom_types>  (34) 
cc
cd
c
o
n
c
o
n
br
h4
hn
hn

>  <target>  (34) 
-18.17

>  <cal>  (34) 
-17.298

$$$$
mobley_3040612
     RDKit          3D

 21 21  0  0  0  0  0  0  0  0999 V2000
    1.2970   -2.2570   -2.2090 C   0  0  0  0  0  0  0  0  0  0  0  0
    1.9530   -1.0260   -1.6040 C   0  0  0  0  0  0  0  0  0  0  0  0
    1.8850   -1.0360   -0.1120 C   0  0  0  0  0  0  0  0  0  0  0  0
    2.9210   -1.6310    0.6080 C   0  0  0  0  0  0  0  0  0  0  0  0
    2.8780   -1.6520    2.0020 C   0  0  0  0  0  0  0  0  0  0  0  0
    1.8000   -1.0790    2.6760 C   0  0  0  0  0  0  0  0  0  0  0  0
    0.7640   -0.4840    1.9550 C   0  0  0  0  0  0  0  0  0  0  0  0
    0.8070   -0.4630    0.5610 C   0  0  0  0  0  0  0  0  0  0  0  0
   -0.3140    0.1790   -0.1890 C   0  0  0  0  0  0  0  0  0  0  0  0
    0.0000    0.0000    0.0000 H   0  0  0  0  0  0  0  0  0  0  0  0
    0.0000    0.0000    0.0000 H   0  0  0  0  0  0  0  0  0  0  0  0
    0.0000    0.0000    0.0000 H   0  0  0  0  0  0  0  0  0  0  0  0
    0.0000    0.0000    0.0000 H   0  0  0  0  0  0  0  0  0  0  0  0
    0.0000    0.0000    0.0000 H   0  0  0  0  0  0  0  0  0  0  0  0
    0.0000    0.0000    0.0000 H   0  0  0  0  0  0  0  0  0  0  0  0
    0.0000    0.0000    0.0000 H   0  0  0  0  0  0  0  0  0  0  0  0
    0.0000    0.0000    0.0000 H   0  0  0  0  0  0  0  0  0  0  0  0
    0.0000    0.0000    0.0000 H   0  0  0  0  0  0  0  0  0  0  0  0
    0.0000    0.0000    0.0000 H   0  0  0  0  0  0  0  0  0  0  0  0
    0.0000    0.0000    0.0000 H   0  0  0  0  0  0  0  0  0  0  0  0
    0.0000    0.0000    0.0000 H   0  0  0  0  0  0  0  0  0  0  0  0
  1  2  1  0
  2  3  1  0
  3  8  2  0
  3  4  1  0
  4  5  2  0
  5  6  1  0
  6  7  2  0
  7  8  1  0
  8  9  1  0
  1 10  1  0
  1 11  1  0
  1 12  1  0
  2 13  1  0
  2 14  1  0
  4 15  1  0
  5 16  1  0
  6 17  1  0
  7 18  1  0
  9 19  1  0
  9 20  1  0
  9 21  1  0
M  END
>  <partial_charges>  (35) 
-0.089500002563
-0.0399000011384
-0.0754999965429
-0.125
-0.132899999619
-0.130400002003
-0.129899993539
-0.0729999989271
-0.055300001055
0.0359000004828
0.0359000004828
0.0359000004828
0.0461000017822
0.0461000017822
0.130400002003
0.129500001669
0.129500001669
0.129600003362
0.0441000014544
0.0441000014544
0.0441000014544

>  <partial_bond_orders>  (35) 
1.0
1.0
2.0
1.0
2.0
1.0
2.0
1.0
1.0
1.0
1.0
1.0
1.0
1.0
1.0
1.0
1.0
1.0
1.0
1.0
1.0

>  <atom_types>  (35) 
c3
c3
ca
ca
ca
ca
ca
ca
c3
hc
hc
hc
hc
hc
ha
ha
ha
ha
hc
hc
hc

>  <target>  (35) 
-0.85

>  <cal>  (35) 
-0.761

$$$$
mobley_4043951
     RDKit          3D

 15 14  0  0  0  0  0  0  0  0999 V2000
    4.2250   -3.9910   -0.0060 C   0  0  0  0  0  0  0  0  0  0  0  0
    3.2900   -2.9170   -0.5420 C   0  0  0  0  0  0  0  0  0  0  0  0
    1.9940   -2.8510    0.2660 C   0  0  0  0  0  0  0  0  0  0  0  0
    1.0740   -1.7920   -0.2650 C   0  0  0  0  0  0  0  0  0  0  0  0
    0.6440   -0.7470    0.4510 C   0  0  0  0  0  0  0  0  0  0  0  0
    0.0000    0.0000    0.0000 H   0  0  0  0  0  0  0  0  0  0  0  0
    0.0000    0.0000    0.0000 H   0  0  0  0  0  0  0  0  0  0  0  0
    0.0000    0.0000    0.0000 H   0  0  0  0  0  0  0  0  0  0  0  0
    0.0000    0.0000    0.0000 H   0  0  0  0  0  0  0  0  0  0  0  0
    0.0000    0.0000    0.0000 H   0  0  0  0  0  0  0  0  0  0  0  0
    0.0000    0.0000    0.0000 H   0  0  0  0  0  0  0  0  0  0  0  0
    0.0000    0.0000    0.0000 H   0  0  0  0  0  0  0  0  0  0  0  0
    0.0000    0.0000    0.0000 H   0  0  0  0  0  0  0  0  0  0  0  0
    0.0000    0.0000    0.0000 H   0  0  0  0  0  0  0  0  0  0  0  0
    0.0000    0.0000    0.0000 H   0  0  0  0  0  0  0  0  0  0  0  0
  1  2  1  0
  2  3  1  0
  3  4  1  0
  4  5  2  3
  1  6  1  0
  1  7  1  0
  1  8  1  0
  2  9  1  0
  2 10  1  0
  3 11  1  0
  3 12  1  0
  4 13  1  0
  5 14  1  0
  5 15  1  0
M  END
>  <partial_charges>  (36) 
-0.0930000022054
-0.0766000002623
-0.0540000014007
-0.162400007248
-0.223800003529
0.0333000011742
0.0333000011742
0.0333000011742
0.040600001812
0.040600001812
0.0450000017881
0.0450000017881
0.117600001395
0.11060000211
0.11060000211

>  <partial_bond_orders>  (36) 
1.0
1.0
1.0
2.0
1.0
1.0
1.0
1.0
1.0
1.0
1.0
1.0
1.0
1.0

>  <atom_types>  (36) 
c3
c3
c3
c2
c2
hc
hc
hc
hc
hc
hc
hc
ha
ha
ha

>  <target>  (36) 
1.68

>  <cal>  (36) 
2.532

$$$$
mobley_2913224
     RDKit          3D

 21 21  0  0  0  0  0  0  0  0999 V2000
    1.4680   -2.0390   -3.5390 C   0  0  0  0  0  0  0  0  0  0  0  0
    1.3500   -2.1440   -2.0480 C   0  0  0  0  0  0  0  0  0  0  0  0
    0.8140   -3.0760   -1.4640 O   0  0  0  0  0  0  0  0  0  0  0  0
    1.9460   -1.0260   -1.4740 O   0  0  0  0  0  0  0  0  0  0  0  0
    1.8850   -1.0360   -0.1120 C   0  0  0  0  0  0  0  0  0  0  0  0
    2.9210   -1.6310    0.6080 C   0  0  0  0  0  0  0  0  0  0  0  0
    2.8780   -1.6520    2.0020 C   0  0  0  0  0  0  0  0  0  0  0  0
    1.8000   -1.0790    2.6760 C   0  0  0  0  0  0  0  0  0  0  0  0
    0.7640   -0.4840    1.9550 C   0  0  0  0  0  0  0  0  0  0  0  0
    0.8070   -0.4630    0.5610 C   0  0  0  0  0  0  0  0  0  0  0  0
   -0.2850    0.1630   -0.1720 C   0  0  0  0  0  0  0  0  0  0  0  0
   -0.1830    0.7170   -1.2700 O   0  0  0  0  0  0  0  0  0  0  0  0
   -1.4710    0.0760    0.4900 O   0  0  0  0  0  0  0  0  0  0  0  0
    0.0000    0.0000    0.0000 H   0  0  0  0  0  0  0  0  0  0  0  0
    0.0000    0.0000    0.0000 H   0  0  0  0  0  0  0  0  0  0  0  0
    0.0000    0.0000    0.0000 H   0  0  0  0  0  0  0  0  0  0  0  0
    0.0000    0.0000    0.0000 H   0  0  0  0  0  0  0  0  0  0  0  0
    0.0000    0.0000    0.0000 H   0  0  0  0  0  0  0  0  0  0  0  0
    0.0000    0.0000    0.0000 H   0  0  0  0  0  0  0  0  0  0  0  0
    0.0000    0.0000    0.0000 H   0  0  0  0  0  0  0  0  0  0  0  0
    0.0000    0.0000    0.0000 H   0  0  0  0  0  0  0  0  0  0  0  0
  1  2  1  0
  2  3  2  0
  2  4  1  0
  4  5  1  0
  5 10  2  0
  5  6  1  0
  6  7  2  0
  7  8  1  0
  8  9  2  0
  9 10  1  0
 10 11  1  0
 11 12  2  0
 11 13  1  0
  1 14  1  0
  1 15  1  0
  1 16  1  0
  6 17  1  0
  7 18  1  0
  8 19  1  0
  9 20  1  0
 13 21  1  0
M  END
>  <partial_charges>  (37) 
-0.186100006104
0.640600025654
-0.446399986744
-0.353899985552
0.172999992967
-0.2011000067
-0.0724000036716
-0.163800001144
-0.0535999983549
-0.144999995828
0.652599990368
-0.520500004292
-0.618200004101
0.0816999971867
0.0816999971867
0.0816999971867
0.153999999166
0.143099993467
0.144099995494
0.161799997091
0.446900010109

>  <partial_bond_orders>  (37) 
1.0
2.0
1.0
1.0
2.0
1.0
2.0
1.0
2.0
1.0
1.0
2.0
1.0
1.0
1.0
1.0
1.0
1.0
1.0
1.0
1.0

>  <atom_types>  (37) 
c3
c
o
os
ca
ca
ca
ca
ca
ca
c
o
oh
hc
hc
hc
ha
ha
ha
ha
ho

>  <target>  (37) 
-9.94

>  <cal>  (37) 
-9.399

$$$$
mobley_8614858
     RDKit          3D

 23 22  0  0  0  0  0  0  0  0999 V2000
    1.3990    1.0560   -1.8410 C   0  0  0  0  0  0  0  0  0  0  0  0
    1.4560   -0.4010   -1.4090 C   0  0  0  0  0  0  0  0  0  0  0  0
    2.6410   -0.7220   -0.4960 C   0  0  0  0  0  0  0  0  0  0  0  0
    2.6940   -2.1890   -0.0640 C   0  0  0  0  0  0  0  0  0  0  0  0
    3.8950   -2.4550    0.8460 C   0  0  0  0  0  0  0  0  0  0  0  0
    3.9500   -3.9200    1.2800 C   0  0  0  0  0  0  0  0  0  0  0  0
    5.1430   -4.1890    2.1840 C   0  0  0  0  0  0  0  0  0  0  0  0
    0.0000    0.0000    0.0000 H   0  0  0  0  0  0  0  0  0  0  0  0
    0.0000    0.0000    0.0000 H   0  0  0  0  0  0  0  0  0  0  0  0
    0.0000    0.0000    0.0000 H   0  0  0  0  0  0  0  0  0  0  0  0
    0.0000    0.0000    0.0000 H   0  0  0  0  0  0  0  0  0  0  0  0
    0.0000    0.0000    0.0000 H   0  0  0  0  0  0  0  0  0  0  0  0
    0.0000    0.0000    0.0000 H   0  0  0  0  0  0  0  0  0  0  0  0
    0.0000    0.0000    0.0000 H   0  0  0  0  0  0  0  0  0  0  0  0
    0.0000    0.0000    0.0000 H   0  0  0  0  0  0  0  0  0  0  0  0
    0.0000    0.0000    0.0000 H   0  0  0  0  0  0  0  0  0  0  0  0
    0.0000    0.0000    0.0000 H   0  0  0  0  0  0  0  0  0  0  0  0
    0.0000    0.0000    0.0000 H   0  0  0  0  0  0  0  0  0  0  0  0
    0.0000    0.0000    0.0000 H   0  0  0  0  0  0  0  0  0  0  0  0
    0.0000    0.0000    0.0000 H   0  0  0  0  0  0  0  0  0  0  0  0
    0.0000    0.0000    0.0000 H   0  0  0  0  0  0  0  0  0  0  0  0
    0.0000    0.0000    0.0000 H   0  0  0  0  0  0  0  0  0  0  0  0
    0.0000    0.0000    0.0000 H   0  0  0  0  0  0  0  0  0  0  0  0
  1  2  1  0
  2  3  1  0
  3  4  1  0
  4  5  1  0
  5  6  1  0
  6  7  1  0
  1  8  1  0
  1  9  1  0
  1 10  1  0
  2 11  1  0
  2 12  1  0
  3 13  1  0
  3 14  1  0
  4 15  1  0
  4 16  1  0
  5 17  1  0
  5 18  1  0
  6 19  1  0
  6 20  1  0
  7 21  1  0
  7 22  1  0
  7 23  1  0
M  END
>  <partial_charges>  (38) 
-0.0923999994993
-0.0794999971986
-0.0785000026226
-0.0790999978781
-0.0785000026226
-0.0794999971986
-0.0923999994993
0.0322000011802
0.0322000011802
0.0322000011802
0.0379000008106
0.0379000008106
0.0392999984324
0.0392999984324
0.0390000008047
0.0390000008047
0.0392999984324
0.0392999984324
0.0379000008106
0.0379000008106
0.0322000011802
0.0322000011802
0.0322000011802

>  <partial_bond_orders>  (38) 
1.0
1.0
1.0
1.0
1.0
1.0
1.0
1.0
1.0
1.0
1.0
1.0
1.0
1.0
1.0
1.0
1.0
1.0
1.0
1.0
1.0
1.0

>  <atom_types>  (38) 
c3
c3
c3
c3
c3
c3
c3
hc
hc
hc
hc
hc
hc
hc
hc
hc
hc
hc
hc
hc
hc
hc
hc

>  <target>  (38) 
2.67

>  <cal>  (38) 
2.925

$$$$
mobley_6257907
     RDKit          3D

 14 14  0  0  0  0  0  0  0  0999 V2000
    1.8850   -1.0360   -0.1120 C   0  0  0  0  0  0  0  0  0  0  0  0
    2.9210   -1.6310    0.6080 C   0  0  0  0  0  0  0  0  0  0  0  0
    2.8780   -1.6520    2.0020 C   0  0  0  0  0  0  0  0  0  0  0  0
    1.8000   -1.0790    2.6760 C   0  0  0  0  0  0  0  0  0  0  0  0
    0.7640   -0.4840    1.9550 C   0  0  0  0  0  0  0  0  0  0  0  0
    0.8070   -0.4630    0.5610 C   0  0  0  0  0  0  0  0  0  0  0  0
   -0.5670    0.2240    2.7850 Cl  0  0  0  0  0  0  0  0  0  0  0  0
    3.9260   -2.2530    2.7300 N   0  0  0  0  0  0  0  0  0  0  0  0
    0.0000    0.0000    0.0000 H   0  0  0  0  0  0  0  0  0  0  0  0
    0.0000    0.0000    0.0000 H   0  0  0  0  0  0  0  0  0  0  0  0
    0.0000    0.0000    0.0000 H   0  0  0  0  0  0  0  0  0  0  0  0
    0.0000    0.0000    0.0000 H   0  0  0  0  0  0  0  0  0  0  0  0
    0.0000    0.0000    0.0000 H   0  0  0  0  0  0  0  0  0  0  0  0
    0.0000    0.0000    0.0000 H   0  0  0  0  0  0  0  0  0  0  0  0
  1  6  2  0
  1  2  1  0
  2  3  2  0
  3  4  1  0
  4  5  2  0
  5  6  1  0
  5  7  1  0
  3  8  1  0
  1  9  1  0
  2 10  1  0
  4 11  1  0
  6 12  1  0
  8 13  1  0
  8 14  1  0
M  END
>  <partial_charges>  (39) 
-0.0838000029325
-0.193000003695
0.151800006628
-0.191699996591
0.0571999996901
-0.16930000484
-0.100599996746
-0.821099996567
0.136199995875
0.134000003338
0.146799996495
0.146500006318
0.393400013447
0.393400013447

>  <partial_bond_orders>  (39) 
2.0
1.0
2.0
1.0
2.0
1.0
1.0
1.0
1.0
1.0
1.0
1.0
1.0
1.0

>  <atom_types>  (39) 
ca
ca
ca
ca
ca
ca
cl
nh
ha
ha
ha
ha
hn
hn

>  <target>  (39) 
-5.82

>  <cal>  (39) 
-5.138

$$$$
mobley_5456566
     RDKit          3D

 22 23  0  0  0  0  0  0  0  0999 V2000
    1.8850   -1.0360   -0.1120 C   0  0  0  0  0  0  0  0  0  0  0  0
    2.9210   -1.6310    0.6080 C   0  0  0  0  0  0  0  0  0  0  0  0
    2.8780   -1.6520    2.0020 C   0  0  0  0  0  0  0  0  0  0  0  0
    1.8000   -1.0790    2.6760 C   0  0  0  0  0  0  0  0  0  0  0  0
    0.7640   -0.4840    1.9550 C   0  0  0  0  0  0  0  0  0  0  0  0
    0.8070   -0.4630    0.5610 C   0  0  0  0  0  0  0  0  0  0  0  0
   -0.4830    0.2770   -0.3510 Cl  0  0  0  0  0  0  0  0  0  0  0  0
   -0.5850    0.2340    2.7950 Cl  0  0  0  0  0  0  0  0  0  0  0  0
    1.7480   -1.1030    4.4180 Cl  0  0  0  0  0  0  0  0  0  0  0  0
    4.1750   -2.3940    2.9000 Cl  0  0  0  0  0  0  0  0  0  0  0  0
    4.2640   -2.3450   -0.2450 Cl  0  0  0  0  0  0  0  0  0  0  0  0
    1.9290   -1.0160   -1.5690 C   0  0  0  0  0  0  0  0  0  0  0  0
    2.5330    0.0520   -2.2330 C   0  0  0  0  0  0  0  0  0  0  0  0
    2.5740    0.0720   -3.6280 C   0  0  0  0  0  0  0  0  0  0  0  0
    2.0110   -0.9750   -4.3570 C   0  0  0  0  0  0  0  0  0  0  0  0
    1.4070   -2.0420   -3.6930 C   0  0  0  0  0  0  0  0  0  0  0  0
    1.3660   -2.0630   -2.2990 C   0  0  0  0  0  0  0  0  0  0  0  0
    0.6140   -3.3920   -1.4570 Cl  0  0  0  0  0  0  0  0  0  0  0  0
    0.7040   -3.3520   -4.6030 Cl  0  0  0  0  0  0  0  0  0  0  0  0
    2.0640   -0.9490   -6.1000 Cl  0  0  0  0  0  0  0  0  0  0  0  0
    3.3310    1.4070   -4.4550 Cl  0  0  0  0  0  0  0  0  0  0  0  0
    3.2320    1.3560   -1.3100 Cl  0  0  0  0  0  0  0  0  0  0  0  0
  1  6  1  0
  1  2  2  0
  2  3  1  0
  3  4  2  0
  4  5  1  0
  5  6  2  0
  6  7  1  0
  5  8  1  0
  4  9  1  0
  3 10  1  0
  2 11  1  0
  1 12  1  0
 12 17  1  0
 12 13  2  0
 13 14  1  0
 14 15  2  0
 15 16  1  0
 16 17  2  0
 17 18  1  0
 16 19  1  0
 15 20  1  0
 14 21  1  0
 13 22  1  0
M  END
>  <partial_charges>  (40) 
-0.0292000006884
0.0529999993742
0.01600000076
0.0375000014901
0.01600000076
0.0529999993742
-0.0322999991477
-0.0274000000209
-0.0269000008702
-0.0274000000209
-0.0322999991477
-0.0291000008583
0.0529999993742
0.01600000076
0.0375000014901
0.01600000076
0.0529999993742
-0.0322999991477
-0.0274000000209
-0.0269000008702
-0.0274000000209
-0.0322999991477

>  <partial_bond_orders>  (40) 
2.0
1.0
2.0
1.0
2.0
1.0
1.0
1.0
1.0
1.0
1.0
1.0
2.0
1.0
2.0
1.0
2.0
1.0
1.0
1.0
1.0
1.0
1.0

>  <atom_types>  (40) 
cp
ca
ca
ca
ca
ca
cl
cl
cl
cl
cl
cp
ca
ca
ca
ca
ca
cl
cl
cl
cl
cl

>  <target>  (40) 
-2.98

>  <cal>  (40) 
0.76

$$$$
mobley_2693089
     RDKit          3D

 22 22  0  0  0  0  0  0  0  0999 V2000
    0.1920   -0.1010    0.9400 C   0  0  0  0  0  0  0  0  0  0  0  0
   -0.6430    0.6470    1.9820 C   0  0  0  0  0  0  0  0  0  0  0  0
   -0.0720    0.3940    3.3790 C   0  0  0  0  0  0  0  0  0  0  0  0
   -0.6900    2.1630    1.7040 C   0  0  0  0  0  0  0  0  0  0  0  0
   -1.2870    2.5200    0.3650 C   0  0  0  0  0  0  0  0  0  0  0  0
   -2.6410    2.7420    0.2400 C   0  0  0  0  0  0  0  0  0  0  0  0
   -3.2050    3.0610   -0.9420 N   0  0  0  0  0  0  0  0  0  0  0  0
   -2.3680    3.1500   -1.9940 C   0  0  0  0  0  0  0  0  0  0  0  0
   -1.0140    2.9290   -1.8690 C   0  0  0  0  0  0  0  0  0  0  0  0
   -0.4490    2.6090   -0.6880 N   0  0  0  0  0  0  0  0  0  0  0  0
    0.0000    0.0000    0.0000 H   0  0  0  0  0  0  0  0  0  0  0  0
    0.0000    0.0000    0.0000 H   0  0  0  0  0  0  0  0  0  0  0  0
    0.0000    0.0000    0.0000 H   0  0  0  0  0  0  0  0  0  0  0  0
    0.0000    0.0000    0.0000 H   0  0  0  0  0  0  0  0  0  0  0  0
    0.0000    0.0000    0.0000 H   0  0  0  0  0  0  0  0  0  0  0  0
    0.0000    0.0000    0.0000 H   0  0  0  0  0  0  0  0  0  0  0  0
    0.0000    0.0000    0.0000 H   0  0  0  0  0  0  0  0  0  0  0  0
    0.0000    0.0000    0.0000 H   0  0  0  0  0  0  0  0  0  0  0  0
    0.0000    0.0000    0.0000 H   0  0  0  0  0  0  0  0  0  0  0  0
    0.0000    0.0000    0.0000 H   0  0  0  0  0  0  0  0  0  0  0  0
    0.0000    0.0000    0.0000 H   0  0  0  0  0  0  0  0  0  0  0  0
    0.0000    0.0000    0.0000 H   0  0  0  0  0  0  0  0  0  0  0  0
  1  2  1  0
  2  3  1  0
  2  4  1  0
  4  5  1  0
  5 10  2  0
  5  6  1  0
  6  7  2  0
  7  8  1  0
  8  9  2  0
  9 10  1  0
  1 11  1  0
  1 12  1  0
  1 13  1  0
  2 14  1  0
  3 15  1  0
  3 16  1  0
  3 17  1  0
  4 18  1  0
  4 19  1  0
  6 20  1  0
  8 21  1  0
  9 22  1  0
M  END
>  <partial_charges>  (41) 
-0.0935000032187
-0.0645999982953
-0.0935000032187
-0.125499993563
0.304300010204
0.2799000144
-0.629199981689
0.27349999547
0.284900009632
-0.634700000286
0.0362000018358
0.0362000018358
0.0362000018358
0.0606000013649
0.0362000018358
0.0362000018358
0.0362000018358
0.0601000003517
0.0601000003517
0.0337999984622
0.0335999988019
0.0328000001609

>  <partial_bond_orders>  (41) 
1.0
1.0
1.0
1.0
2.0
1.0
2.0
1.0
2.0
1.0
1.0
1.0
1.0
1.0
1.0
1.0
1.0
1.0
1.0
1.0
1.0
1.0

>  <atom_types>  (41) 
c3
c3
c3
c3
ca
ca
nb
ca
ca
nb
hc
hc
hc
hc
hc
hc
hc
hc
hc
h4
h4
h4

>  <target>  (41) 
-5.04

>  <cal>  (41) 
-5.495

$$$$
mobley_4587267
     RDKit          3D

 26 25  0  0  1  0  0  0  0  0999 V2000
    1.0220   -1.6250    5.7470 C   0  0  0  0  0  0  0  0  0  0  0  0
    0.3620   -2.1090    4.4560 C   0  0  0  0  0  0  0  0  0  0  0  0
    1.0870   -1.6630    3.1710 C   0  0  0  0  0  0  0  0  0  0  0  0
    0.4370   -2.1910    1.8810 C   0  0  0  0  0  0  0  0  0  0  0  0
    1.1730   -1.7660    0.5950 C   0  0  0  0  0  0  0  0  0  0  0  0
    0.4730   -2.1840   -0.6960 C   0  0  0  0  0  0  0  0  0  0  0  0
    1.2490   -1.7340   -1.8040 O   0  0  0  0  0  0  0  0  0  0  0  0
    1.2570   -0.3350    0.5780 O   0  0  0  0  0  0  0  0  0  0  0  0
    0.3790   -3.6150    1.9440 O   0  0  0  0  0  0  0  0  0  0  0  0
    2.4470   -2.0950    3.2120 O   0  0  0  0  0  0  0  0  0  0  0  0
   -0.9640   -1.5660    4.4350 O   0  0  0  0  0  0  0  0  0  0  0  0
    0.4990   -2.3530    6.8560 O   0  0  0  0  0  0  0  0  0  0  0  0
    0.0000    0.0000    0.0000 H   0  0  0  0  0  0  0  0  0  0  0  0
    0.0000    0.0000    0.0000 H   0  0  0  0  0  0  0  0  0  0  0  0
    0.0000    0.0000    0.0000 H   0  0  0  0  0  0  0  0  0  0  0  0
    0.0000    0.0000    0.0000 H   0  0  0  0  0  0  0  0  0  0  0  0
    0.0000    0.0000    0.0000 H   0  0  0  0  0  0  0  0  0  0  0  0
    0.0000    0.0000    0.0000 H   0  0  0  0  0  0  0  0  0  0  0  0
    0.0000    0.0000    0.0000 H   0  0  0  0  0  0  0  0  0  0  0  0
    0.0000    0.0000    0.0000 H   0  0  0  0  0  0  0  0  0  0  0  0
    0.0000    0.0000    0.0000 H   0  0  0  0  0  0  0  0  0  0  0  0
    0.0000    0.0000    0.0000 H   0  0  0  0  0  0  0  0  0  0  0  0
    0.0000    0.0000    0.0000 H   0  0  0  0  0  0  0  0  0  0  0  0
    0.0000    0.0000    0.0000 H   0  0  0  0  0  0  0  0  0  0  0  0
    0.0000    0.0000    0.0000 H   0  0  0  0  0  0  0  0  0  0  0  0
    0.0000    0.0000    0.0000 H   0  0  0  0  0  0  0  0  0  0  0  0
  1  2  1  0
  2  3  1  0
  3  4  1  0
  4  5  1  0
  5  6  1  0
  6  7  1  0
  5  8  1  0
  4  9  1  0
  3 10  1  0
  2 11  1  0
  1 12  1  0
  1 13  1  0
  1 14  1  0
  2 15  1  0
  3 16  1  0
  4 17  1  0
  5 18  1  0
  6 19  1  0
  6 20  1  0
  7 21  1  0
  8 22  1  0
  9 23  1  0
 10 24  1  0
 11 25  1  0
 12 26  1  0
M  END
>  <partial_charges>  (42) 
0.117499999702
0.122900001705
0.0606999993324
0.11779999733
0.0571999996901
0.11779999733
0.0571999996901
0.122900001705
0.0606999993324
0.117499999702
-0.605799973011
-0.599099993706
-0.604700028896
-0.604700028896
-0.599099993706
-0.605799973011
0.0456000007689
0.0456000007689
0.0456000007689
0.0456000007689
0.407700002193
0.410400003195
0.424199998379
0.424199998379
0.410400003195
0.407700002193

>  <partial_bond_orders>  (42) 
1.0
1.0
1.0
1.0
1.0
1.0
1.0
1.0
1.0
1.0
1.0
1.0
1.0
1.0
1.0
1.0
1.0
1.0
1.0
1.0
1.0
1.0
1.0
1.0
1.0

>  <atom_types>  (42) 
c3
c3
h1
c3
h1
c3
h1
c3
h1
c3
oh
oh
oh
oh
oh
oh
h1
h1
h1
h1
ho
ho
ho
ho
ho
ho

>  <target>  (42) 
-23.62

>  <cal>  (42) 
-18.162

$$$$
mobley_5708811
     RDKit          3D

 19 19  0  0  0  0  0  0  0  0999 V2000
    2.5540    0.1100   -2.0820 C   0  0  0  0  0  0  0  0  0  0  0  0
    1.9230   -1.0130   -1.4770 O   0  0  0  0  0  0  0  0  0  0  0  0
    1.8850   -1.0360   -0.1120 C   0  0  0  0  0  0  0  0  0  0  0  0
    2.9210   -1.6310    0.6080 C   0  0  0  0  0  0  0  0  0  0  0  0
    2.8780   -1.6520    2.0020 C   0  0  0  0  0  0  0  0  0  0  0  0
    1.8000   -1.0790    2.6760 C   0  0  0  0  0  0  0  0  0  0  0  0
    0.7640   -0.4840    1.9550 C   0  0  0  0  0  0  0  0  0  0  0  0
    0.8070   -0.4630    0.5610 C   0  0  0  0  0  0  0  0  0  0  0  0
   -0.2680    0.1540   -0.2130 C   0  0  0  0  0  0  0  0  0  0  0  0
   -0.6080    1.3350   -0.1380 O   0  0  0  0  0  0  0  0  0  0  0  0
   -0.8720   -0.7300   -1.0500 O   0  0  0  0  0  0  0  0  0  0  0  0
   -0.5520    0.2130    2.8310 Cl  0  0  0  0  0  0  0  0  0  0  0  0
    4.2690   -2.3490   -0.1950 Cl  0  0  0  0  0  0  0  0  0  0  0  0
    0.0000    0.0000    0.0000 H   0  0  0  0  0  0  0  0  0  0  0  0
    0.0000    0.0000    0.0000 H   0  0  0  0  0  0  0  0  0  0  0  0
    0.0000    0.0000    0.0000 H   0  0  0  0  0  0  0  0  0  0  0  0
    0.0000    0.0000    0.0000 H   0  0  0  0  0  0  0  0  0  0  0  0
    0.0000    0.0000    0.0000 H   0  0  0  0  0  0  0  0  0  0  0  0
    0.0000    0.0000    0.0000 H   0  0  0  0  0  0  0  0  0  0  0  0
  1  2  1  0
  2  3  1  0
  3  8  2  0
  3  4  1  0
  4  5  2  0
  5  6  1  0
  6  7  2  0
  7  8  1  0
  8  9  1  0
  9 10  2  0
  9 11  1  0
  7 12  1  0
  4 13  1  0
  1 14  1  0
  1 15  1  0
  1 16  1  0
  5 17  1  0
  6 18  1  0
 11 19  1  0
M  END
>  <partial_charges>  (43) 
0.112400002778
-0.327499985695
0.153099998832
-0.00999999977648
-0.0873000025749
-0.134299993515
0.0649999976158
-0.120499998331
0.658200025558
-0.532400012016
-0.57849997282
-0.0531999990344
-0.0579000003636
0.049699999392
0.049699999392
0.049699999392
0.15909999609
0.160099998116
0.444499999285

>  <partial_bond_orders>  (43) 
1.0
1.0
2.0
1.0
2.0
1.0
2.0
1.0
1.0
2.0
1.0
1.0
1.0
1.0
1.0
1.0
1.0
1.0
1.0

>  <atom_types>  (43) 
c3
os
ca
ca
ca
ca
ca
ca
c
o
oh
cl
cl
h1
h1
h1
ha
ha
ho

>  <target>  (43) 
-9.86

>  <cal>  (43) 
-8.658

$$$$
mobley_6082662
     RDKit          3D

 16 16  0  0  0  0  0  0  0  0999 V2000
    1.8850   -1.0360   -0.1120 C   0  0  0  0  0  0  0  0  0  0  0  0
    2.9210   -1.6310    0.6080 C   0  0  0  0  0  0  0  0  0  0  0  0
    2.8780   -1.6520    2.0020 C   0  0  0  0  0  0  0  0  0  0  0  0
    1.8000   -1.0790    2.6760 C   0  0  0  0  0  0  0  0  0  0  0  0
    0.7640   -0.4840    1.9550 C   0  0  0  0  0  0  0  0  0  0  0  0
    0.8070   -0.4630    0.5610 C   0  0  0  0  0  0  0  0  0  0  0  0
   -0.2410    0.1370   -0.1680 N   0  0  0  0  0  0  0  0  0  0  0  0
    3.9340   -2.2560    2.7360 N   0  0  0  0  0  0  0  0  0  0  0  0
    4.8950   -2.7650    2.1100 O   0  0  0  0  0  0  0  0  0  0  0  0
    3.8760   -2.2640    3.9890 O   0  0  0  0  0  0  0  0  0  0  0  0
    0.0000    0.0000    0.0000 H   0  0  0  0  0  0  0  0  0  0  0  0
    0.0000    0.0000    0.0000 H   0  0  0  0  0  0  0  0  0  0  0  0
    0.0000    0.0000    0.0000 H   0  0  0  0  0  0  0  0  0  0  0  0
    0.0000    0.0000    0.0000 H   0  0  0  0  0  0  0  0  0  0  0  0
    0.0000    0.0000    0.0000 H   0  0  0  0  0  0  0  0  0  0  0  0
    0.0000    0.0000    0.0000 H   0  0  0  0  0  0  0  0  0  0  0  0
  1  6  2  0
  1  2  1  0
  2  3  2  0
  3  4  1  0
  4  5  2  0
  5  6  1  0
  6  7  1  0
  3  8  1  0
  8  9  1  0
  8 10  1  0
  1 11  1  0
  2 12  1  0
  4 13  1  0
  5 14  1  0
  7 15  1  0
  7 16  1  0
M  CHG  2   9  -1  10  -1
M  END
>  <partial_charges>  (44) 
-0.224900007248
-0.0159000009298
-0.244000002742
-0.0159000009298
-0.224900007248
0.222699999809
-0.850300014019
0.322899997234
-0.220699995756
-0.220699995756
0.144600003958
0.168300002813
0.168300002813
0.144600003958
0.423000007868
0.423000007868

>  <partial_bond_orders>  (44) 
2.0
1.0
2.0
1.0
2.0
1.0
1.0
1.0
1.0
1.0
1.0
1.0
1.0
1.0
1.0
1.0

>  <atom_types>  (44) 
ca
ca
ca
ca
ca
ca
nh
no
o
o
ha
ha
ha
ha
hn
hn

>  <target>  (44) 
-9.82

>  <cal>  (44) 
-9.416

$$$$
mobley_9029594
     RDKit          3D

  5  4  0  0  0  0  0  0  0  0999 V2000
   -0.0530    0.0090   -0.0280 C   0  0  0  0  0  0  0  0  0  0  0  0
    1.1320   -0.1960    0.6000 F   0  0  0  0  0  0  0  0  0  0  0  0
    0.0000    0.0000    0.0000 H   0  0  0  0  0  0  0  0  0  0  0  0
    0.0000    0.0000    0.0000 H   0  0  0  0  0  0  0  0  0  0  0  0
    0.0000    0.0000    0.0000 H   0  0  0  0  0  0  0  0  0  0  0  0
  1  2  1  0
  1  3  1  0
  1  4  1  0
  1  5  1  0
M  END
>  <partial_charges>  (45) 
0.148599997163
-0.250299990177
0.033900000155
0.033900000155
0.033900000155

>  <partial_bond_orders>  (45) 
1.0
1.0
1.0
1.0

>  <atom_types>  (45) 
c3
f
h1
h1
h1

>  <target>  (45) 
-0.22

>  <cal>  (45) 
0.881

$$$$
mobley_6195751
     RDKit          3D

 23 23  0  0  0  0  0  0  0  0999 V2000
    2.5870    0.0900   -2.0810 C   0  0  0  0  0  0  0  0  0  0  0  0
    1.9450   -1.0260   -1.4760 O   0  0  0  0  0  0  0  0  0  0  0  0
    1.8850   -1.0360   -0.1120 C   0  0  0  0  0  0  0  0  0  0  0  0
    2.9210   -1.6310    0.6080 C   0  0  0  0  0  0  0  0  0  0  0  0
    2.8780   -1.6520    2.0020 C   0  0  0  0  0  0  0  0  0  0  0  0
    1.8000   -1.0790    2.6760 C   0  0  0  0  0  0  0  0  0  0  0  0
    0.7640   -0.4840    1.9550 C   0  0  0  0  0  0  0  0  0  0  0  0
    0.8070   -0.4630    0.5610 C   0  0  0  0  0  0  0  0  0  0  0  0
   -0.4720    0.2680   -0.3530 Cl  0  0  0  0  0  0  0  0  0  0  0  0
   -0.3670    0.1170    2.6610 C   0  0  0  0  0  0  0  0  0  0  0  0
   -0.6620    1.3060    2.5550 O   0  0  0  0  0  0  0  0  0  0  0  0
    1.7660   -1.1130    4.4080 Cl  0  0  0  0  0  0  0  0  0  0  0  0
    3.9010   -2.2390    2.6900 O   0  0  0  0  0  0  0  0  0  0  0  0
    4.9990   -1.4050    3.0500 C   0  0  0  0  0  0  0  0  0  0  0  0
    3.9760   -2.1910   -0.0500 O   0  0  0  0  0  0  0  0  0  0  0  0
    0.0000    0.0000    0.0000 H   0  0  0  0  0  0  0  0  0  0  0  0
    0.0000    0.0000    0.0000 H   0  0  0  0  0  0  0  0  0  0  0  0
    0.0000    0.0000    0.0000 H   0  0  0  0  0  0  0  0  0  0  0  0
    0.0000    0.0000    0.0000 H   0  0  0  0  0  0  0  0  0  0  0  0
    0.0000    0.0000    0.0000 H   0  0  0  0  0  0  0  0  0  0  0  0
    0.0000    0.0000    0.0000 H   0  0  0  0  0  0  0  0  0  0  0  0
    0.0000    0.0000    0.0000 H   0  0  0  0  0  0  0  0  0  0  0  0
    0.0000    0.0000    0.0000 H   0  0  0  0  0  0  0  0  0  0  0  0
  1  2  1  0
  2  3  1  0
  3  8  2  0
  3  4  1  0
  4  5  2  0
  5  6  1  0
  6  7  2  0
  7  8  1  0
  8  9  1  0
  7 10  1  0
 10 11  2  0
  6 12  1  0
  5 13  1  0
 13 14  1  0
  4 15  1  0
  1 16  1  0
  1 17  1  0
  1 18  1  0
 10 19  1  0
 14 20  1  0
 14 21  1  0
 14 22  1  0
 15 23  1  0
M  END
>  <partial_charges>  (46) 
0.110399998724
-0.325300008059
0.0397000014782
0.136999994516
0.0397000014782
0.0659999996424
-0.197300001979
0.0659999996424
-0.0472000017762
0.585600018501
-0.49200001359
-0.0472000017762
-0.325300008059
0.110399998724
-0.471100002527
0.0483999997377
0.0483999997377
0.0483999997377
0.0204000007361
0.0483999997377
0.0483999997377
0.0483999997377
0.439999997616

>  <partial_bond_orders>  (46) 
1.0
1.0
2.0
1.0
2.0
1.0
2.0
1.0
1.0
1.0
2.0
1.0
1.0
1.0
1.0
1.0
1.0
1.0
1.0
1.0
1.0
1.0
1.0

>  <atom_types>  (46) 
c3
os
ca
ca
ca
ca
ca
ca
cl
c
o
cl
os
c3
oh
h1
h1
h1
h4
h1
h1
h1
ho

>  <target>  (46) 
-8.68

>  <cal>  (46) 
-9.846

$$$$
mobley_4689084
     RDKit          3D

 20 19  0  0  0  0  0  0  0  0999 V2000
   -0.1310    1.1110   -0.1830 C   0  0  0  0  0  0  0  0  0  0  0  0
   -0.7130    1.3210   -1.5480 C   0  0  0  0  0  0  0  0  0  0  0  0
   -0.1670    1.9650   -2.4340 O   0  0  0  0  0  0  0  0  0  0  0  0
   -1.9190    0.6900   -1.6320 O   0  0  0  0  0  0  0  0  0  0  0  0
   -2.5900    0.8100   -2.8900 C   0  0  0  0  0  0  0  0  0  0  0  0
   -3.9020    0.0600   -2.8140 C   0  0  0  0  0  0  0  0  0  0  0  0
   -3.6410   -1.3090   -2.5310 O   0  0  0  0  0  0  0  0  0  0  0  0
   -4.7410   -2.1160   -2.4330 C   0  0  0  0  0  0  0  0  0  0  0  0
   -5.9050   -1.7660   -2.5650 O   0  0  0  0  0  0  0  0  0  0  0  0
   -4.3160   -3.5220   -2.1340 C   0  0  0  0  0  0  0  0  0  0  0  0
    0.0000    0.0000    0.0000 H   0  0  0  0  0  0  0  0  0  0  0  0
    0.0000    0.0000    0.0000 H   0  0  0  0  0  0  0  0  0  0  0  0
    0.0000    0.0000    0.0000 H   0  0  0  0  0  0  0  0  0  0  0  0
    0.0000    0.0000    0.0000 H   0  0  0  0  0  0  0  0  0  0  0  0
    0.0000    0.0000    0.0000 H   0  0  0  0  0  0  0  0  0  0  0  0
    0.0000    0.0000    0.0000 H   0  0  0  0  0  0  0  0  0  0  0  0
    0.0000    0.0000    0.0000 H   0  0  0  0  0  0  0  0  0  0  0  0
    0.0000    0.0000    0.0000 H   0  0  0  0  0  0  0  0  0  0  0  0
    0.0000    0.0000    0.0000 H   0  0  0  0  0  0  0  0  0  0  0  0
    0.0000    0.0000    0.0000 H   0  0  0  0  0  0  0  0  0  0  0  0
  1  2  1  0
  2  3  2  0
  2  4  1  0
  4  5  1  0
  5  6  1  0
  6  7  1  0
  7  8  1  0
  8  9  2  0
  8 10  1  0
  1 11  1  0
  1 12  1  0
  1 13  1  0
  5 14  1  0
  5 15  1  0
  6 16  1  0
  6 17  1  0
 10 18  1  0
 10 19  1  0
 10 20  1  0
M  END
>  <partial_charges>  (47) 
-0.149100005627
0.637000024319
-0.534699976444
-0.450500011444
0.136999994516
0.136999994516
-0.450500011444
0.637000024319
-0.534699976444
-0.149000003934
0.0777999982238
0.0777999982238
0.0777999982238
0.0635000020266
0.0635000020266
0.0635000020266
0.0635000020266
0.0777999982238
0.0777999982238
0.0777999982238

>  <partial_bond_orders>  (47) 
1.0
2.0
1.0
1.0
1.0
1.0
1.0
2.0
1.0
1.0
1.0
1.0
1.0
1.0
1.0
1.0
1.0
1.0
1.0

>  <atom_types>  (47) 
c3
c
o
os
c3
c3
os
c
o
c3
hc
hc
hc
h1
h1
h1
h1
hc
hc
hc

>  <target>  (47) 
-6.34

>  <cal>  (47) 
-8.292

$$$$
mobley_1650157
     RDKit          3D

 15 14  0  0  0  0  0  0  0  0999 V2000
   -0.4650   -0.0650    0.9890 C   0  0  0  0  0  0  0  0  0  0  0  0
    0.5610   -0.3990    2.0720 C   0  0  0  0  0  0  0  0  0  0  0  0
    1.6270    0.6910    2.1570 C   0  0  0  0  0  0  0  0  0  0  0  0
    1.2040   -1.7600    1.8120 C   0  0  0  0  0  0  0  0  0  0  0  0
   -0.1080   -0.4450    3.3330 O   0  0  0  0  0  0  0  0  0  0  0  0
    0.0000    0.0000    0.0000 H   0  0  0  0  0  0  0  0  0  0  0  0
    0.0000    0.0000    0.0000 H   0  0  0  0  0  0  0  0  0  0  0  0
    0.0000    0.0000    0.0000 H   0  0  0  0  0  0  0  0  0  0  0  0
    0.0000    0.0000    0.0000 H   0  0  0  0  0  0  0  0  0  0  0  0
    0.0000    0.0000    0.0000 H   0  0  0  0  0  0  0  0  0  0  0  0
    0.0000    0.0000    0.0000 H   0  0  0  0  0  0  0  0  0  0  0  0
    0.0000    0.0000    0.0000 H   0  0  0  0  0  0  0  0  0  0  0  0
    0.0000    0.0000    0.0000 H   0  0  0  0  0  0  0  0  0  0  0  0
    0.0000    0.0000    0.0000 H   0  0  0  0  0  0  0  0  0  0  0  0
    0.0000    0.0000    0.0000 H   0  0  0  0  0  0  0  0  0  0  0  0
  1  2  1  0
  2  3  1  0
  2  4  1  0
  2  5  1  0
  1  6  1  0
  1  7  1  0
  1  8  1  0
  3  9  1  0
  3 10  1  0
  3 11  1  0
  4 12  1  0
  4 13  1  0
  4 14  1  0
  5 15  1  0
M  END
>  <partial_charges>  (48) 
-0.108800001442
0.145500004292
-0.108800001442
-0.108800001442
-0.599399983883
0.0427000001073
0.0427000001073
0.0427000001073
0.0427000001073
0.0427000001073
0.0427000001073
0.0427000001073
0.0427000001073
0.0427000001073
0.396100014448

>  <partial_bond_orders>  (48) 
1.0
1.0
1.0
1.0
1.0
1.0
1.0
1.0
1.0
1.0
1.0
1.0
1.0
1.0

>  <atom_types>  (48) 
c3
c3
c3
c3
oh
hc
hc
hc
hc
hc
hc
hc
hc
hc
ho

>  <target>  (48) 
-4.47

>  <cal>  (48) 
-3.288

$$$$
mobley_3968043
     RDKit          3D

 14 14  0  0  0  0  0  0  0  0999 V2000
    0.6830    1.4450    0.0710 C   0  0  0  0  0  0  0  0  0  0  0  0
   -0.1590    1.1000   -1.1500 C   0  0  0  0  0  0  0  0  0  0  0  0
   -0.2120   -0.4220   -1.1580 C   0  0  0  0  0  0  0  0  0  0  0  0
   -0.1520   -0.7390    0.3130 C   0  0  0  0  0  0  0  0  0  0  0  0
   -0.3800   -1.8470    0.7830 O   0  0  0  0  0  0  0  0  0  0  0  0
    0.2210    0.4630    1.1410 C   0  0  0  0  0  0  0  0  0  0  0  0
    0.0000    0.0000    0.0000 H   0  0  0  0  0  0  0  0  0  0  0  0
    0.0000    0.0000    0.0000 H   0  0  0  0  0  0  0  0  0  0  0  0
    0.0000    0.0000    0.0000 H   0  0  0  0  0  0  0  0  0  0  0  0
    0.0000    0.0000    0.0000 H   0  0  0  0  0  0  0  0  0  0  0  0
    0.0000    0.0000    0.0000 H   0  0  0  0  0  0  0  0  0  0  0  0
    0.0000    0.0000    0.0000 H   0  0  0  0  0  0  0  0  0  0  0  0
    0.0000    0.0000    0.0000 H   0  0  0  0  0  0  0  0  0  0  0  0
    0.0000    0.0000    0.0000 H   0  0  0  0  0  0  0  0  0  0  0  0
  1  6  1  0
  1  2  1  0
  2  3  1  0
  3  4  1  0
  4  5  2  0
  4  6  1  0
  1  7  1  0
  1  8  1  0
  2  9  1  0
  2 10  1  0
  3 11  1  0
  3 12  1  0
  6 13  1  0
  6 14  1  0
M  END
>  <partial_charges>  (49) 
-0.0825000032783
-0.0825000032783
-0.189500004053
0.569199979305
-0.526700019836
-0.189500004053
0.0493000000715
0.0493000000715
0.0493000000715
0.0493000000715
0.076099999249
0.076099999249
0.076099999249
0.076099999249

>  <partial_bond_orders>  (49) 
1.0
1.0
1.0
1.0
2.0
1.0
1.0
1.0
1.0
1.0
1.0
1.0
1.0
1.0

>  <atom_types>  (49) 
c3
c3
c3
c
o
c3
hc
hc
hc
hc
hc
hc
hc
hc

>  <target>  (49) 
-4.7

>  <cal>  (49) 
-3.889

$$$$
mobley_2364370
     RDKit          3D

 20 19  0  0  0  0  0  0  0  0999 V2000
    0.3900   -1.0210   -0.0850 C   0  0  0  0  0  0  0  0  0  0  0  0
   -0.5800   -2.0240    0.5200 C   0  0  0  0  0  0  0  0  0  0  0  0
   -1.9310   -1.9920   -0.1890 C   0  0  0  0  0  0  0  0  0  0  0  0
   -2.9050   -2.9950    0.4140 C   0  0  0  0  0  0  0  0  0  0  0  0
   -4.1380   -2.9160   -0.2880 O   0  0  0  0  0  0  0  0  0  0  0  0
   -5.1230   -3.7630    0.1410 C   0  0  0  0  0  0  0  0  0  0  0  0
   -5.0320   -4.5660    1.0590 O   0  0  0  0  0  0  0  0  0  0  0  0
   -6.3580   -3.5690   -0.6860 C   0  0  0  0  0  0  0  0  0  0  0  0
    0.0000    0.0000    0.0000 H   0  0  0  0  0  0  0  0  0  0  0  0
    0.0000    0.0000    0.0000 H   0  0  0  0  0  0  0  0  0  0  0  0
    0.0000    0.0000    0.0000 H   0  0  0  0  0  0  0  0  0  0  0  0
    0.0000    0.0000    0.0000 H   0  0  0  0  0  0  0  0  0  0  0  0
    0.0000    0.0000    0.0000 H   0  0  0  0  0  0  0  0  0  0  0  0
    0.0000    0.0000    0.0000 H   0  0  0  0  0  0  0  0  0  0  0  0
    0.0000    0.0000    0.0000 H   0  0  0  0  0  0  0  0  0  0  0  0
    0.0000    0.0000    0.0000 H   0  0  0  0  0  0  0  0  0  0  0  0
    0.0000    0.0000    0.0000 H   0  0  0  0  0  0  0  0  0  0  0  0
    0.0000    0.0000    0.0000 H   0  0  0  0  0  0  0  0  0  0  0  0
    0.0000    0.0000    0.0000 H   0  0  0  0  0  0  0  0  0  0  0  0
    0.0000    0.0000    0.0000 H   0  0  0  0  0  0  0  0  0  0  0  0
  1  2  1  0
  2  3  1  0
  3  4  1  0
  4  5  1  0
  5  6  1  0
  6  7  2  0
  6  8  1  0
  1  9  1  0
  1 10  1  0
  1 11  1  0
  2 12  1  0
  2 13  1  0
  3 14  1  0
  3 15  1  0
  4 16  1  0
  4 17  1  0
  8 18  1  0
  8 19  1  0
  8 20  1  0
M  END
>  <partial_charges>  (50) 
-0.0916000008583
-0.0813999995589
-0.0947000011802
0.128700003028
-0.445899993181
0.634999990463
-0.544200003147
-0.150700002909
0.0333000011742
0.0333000011742
0.0333000011742
0.0445000007749
0.0445000007749
0.0502000004053
0.0502000004053
0.0644000023603
0.0644000023603
0.0755999982357
0.0755999982357
0.0755999982357

>  <partial_bond_orders>  (50) 
1.0
1.0
1.0
1.0
1.0
2.0
1.0
1.0
1.0
1.0
1.0
1.0
1.0
1.0
1.0
1.0
1.0
1.0
1.0

>  <atom_types>  (50) 
c3
c3
c3
c3
os
c
o
c3
hc
hc
hc
hc
hc
hc
hc
h1
h1
hc
hc
hc

>  <target>  (50) 
-2.64

>  <cal>  (50) 
-3.406

$$$$
mobley_3183805
     RDKit          3D

 21 21  0  0  0  0  0  0  0  0999 V2000
    1.9310   -1.0140   -1.6030 C   0  0  0  0  0  0  0  0  0  0  0  0
    1.8850   -1.0360   -0.1120 C   0  0  0  0  0  0  0  0  0  0  0  0
    2.9210   -1.6310    0.6080 C   0  0  0  0  0  0  0  0  0  0  0  0
    2.8780   -1.6520    2.0020 C   0  0  0  0  0  0  0  0  0  0  0  0
    1.8000   -1.0790    2.6760 C   0  0  0  0  0  0  0  0  0  0  0  0
    0.7640   -0.4840    1.9550 C   0  0  0  0  0  0  0  0  0  0  0  0
    0.8070   -0.4630    0.5610 C   0  0  0  0  0  0  0  0  0  0  0  0
   -0.4020    0.1340    2.6550 C   0  0  0  0  0  0  0  0  0  0  0  0
    1.7750   -1.1150    4.1690 C   0  0  0  0  0  0  0  0  0  0  0  0
    0.0000    0.0000    0.0000 H   0  0  0  0  0  0  0  0  0  0  0  0
    0.0000    0.0000    0.0000 H   0  0  0  0  0  0  0  0  0  0  0  0
    0.0000    0.0000    0.0000 H   0  0  0  0  0  0  0  0  0  0  0  0
    0.0000    0.0000    0.0000 H   0  0  0  0  0  0  0  0  0  0  0  0
    0.0000    0.0000    0.0000 H   0  0  0  0  0  0  0  0  0  0  0  0
    0.0000    0.0000    0.0000 H   0  0  0  0  0  0  0  0  0  0  0  0
    0.0000    0.0000    0.0000 H   0  0  0  0  0  0  0  0  0  0  0  0
    0.0000    0.0000    0.0000 H   0  0  0  0  0  0  0  0  0  0  0  0
    0.0000    0.0000    0.0000 H   0  0  0  0  0  0  0  0  0  0  0  0
    0.0000    0.0000    0.0000 H   0  0  0  0  0  0  0  0  0  0  0  0
    0.0000    0.0000    0.0000 H   0  0  0  0  0  0  0  0  0  0  0  0
    0.0000    0.0000    0.0000 H   0  0  0  0  0  0  0  0  0  0  0  0
  1  2  1  0
  2  7  2  0
  2  3  1  0
  3  4  2  0
  4  5  1  0
  5  6  2  0
  6  7  1  0
  6  8  1  0
  5  9  1  0
  1 10  1  0
  1 11  1  0
  1 12  1  0
  3 13  1  0
  4 14  1  0
  7 15  1  0
  8 16  1  0
  8 17  1  0
  8 18  1  0
  9 19  1  0
  9 20  1  0
  9 21  1  0
M  END
>  <partial_charges>  (51) 
-0.0520000010729
-0.0794000029564
-0.131600007415
-0.125799998641
-0.0790000036359
-0.0715999975801
-0.130099996924
-0.0527000017464
-0.0522000007331
0.0430999994278
0.0430999994278
0.0430999994278
0.130099996924
0.128499999642
0.128600001335
0.043299999088
0.043299999088
0.043299999088
0.0428000018001
0.0428000018001
0.0428000018001

>  <partial_bond_orders>  (51) 
1.0
2.0
1.0
2.0
1.0
2.0
1.0
1.0
1.0
1.0
1.0
1.0
1.0
1.0
1.0
1.0
1.0
1.0
1.0
1.0
1.0

>  <atom_types>  (51) 
c3
ca
ca
ca
ca
ca
ca
c3
c3
hc
hc
hc
ha
ha
ha
hc
hc
hc
hc
hc
hc

>  <target>  (51) 
-0.86

>  <cal>  (51) 
-0.795

$$$$
mobley_4252724
     RDKit          3D

 24 24  0  0  0  0  0  0  0  0999 V2000
    0.1920   -0.1010    0.9400 C   0  0  0  0  0  0  0  0  0  0  0  0
   -0.6430    0.6470    1.9820 C   0  0  0  0  0  0  0  0  0  0  0  0
   -0.0720    0.3940    3.3790 C   0  0  0  0  0  0  0  0  0  0  0  0
   -0.6900    2.1630    1.7040 C   0  0  0  0  0  0  0  0  0  0  0  0
   -1.2870    2.5200    0.3650 C   0  0  0  0  0  0  0  0  0  0  0  0
   -0.4670    2.6260   -0.7580 C   0  0  0  0  0  0  0  0  0  0  0  0
   -1.0180    2.9560   -1.9960 C   0  0  0  0  0  0  0  0  0  0  0  0
   -2.3900    3.1800   -2.1110 C   0  0  0  0  0  0  0  0  0  0  0  0
   -3.2110    3.0730   -0.9880 C   0  0  0  0  0  0  0  0  0  0  0  0
   -2.6590    2.7430    0.2500 C   0  0  0  0  0  0  0  0  0  0  0  0
    0.0000    0.0000    0.0000 H   0  0  0  0  0  0  0  0  0  0  0  0
    0.0000    0.0000    0.0000 H   0  0  0  0  0  0  0  0  0  0  0  0
    0.0000    0.0000    0.0000 H   0  0  0  0  0  0  0  0  0  0  0  0
    0.0000    0.0000    0.0000 H   0  0  0  0  0  0  0  0  0  0  0  0
    0.0000    0.0000    0.0000 H   0  0  0  0  0  0  0  0  0  0  0  0
    0.0000    0.0000    0.0000 H   0  0  0  0  0  0  0  0  0  0  0  0
    0.0000    0.0000    0.0000 H   0  0  0  0  0  0  0  0  0  0  0  0
    0.0000    0.0000    0.0000 H   0  0  0  0  0  0  0  0  0  0  0  0
    0.0000    0.0000    0.0000 H   0  0  0  0  0  0  0  0  0  0  0  0
    0.0000    0.0000    0.0000 H   0  0  0  0  0  0  0  0  0  0  0  0
    0.0000    0.0000    0.0000 H   0  0  0  0  0  0  0  0  0  0  0  0
    0.0000    0.0000    0.0000 H   0  0  0  0  0  0  0  0  0  0  0  0
    0.0000    0.0000    0.0000 H   0  0  0  0  0  0  0  0  0  0  0  0
    0.0000    0.0000    0.0000 H   0  0  0  0  0  0  0  0  0  0  0  0
  1  2  1  0
  2  3  1  0
  2  4  1  0
  4  5  1  0
  5 10  2  0
  5  6  1  0
  6  7  2  0
  7  8  1  0
  8  9  2  0
  9 10  1  0
  1 11  1  0
  1 12  1  0
  1 13  1  0
  2 14  1  0
  3 15  1  0
  3 16  1  0
  3 17  1  0
  4 18  1  0
  4 19  1  0
  6 20  1  0
  7 21  1  0
  8 22  1  0
  9 23  1  0
 10 24  1  0
M  END
>  <partial_charges>  (52) 
-0.091899998486
-0.0627999976277
-0.091899998486
-0.0340999998152
-0.0742999985814
-0.12800000608
-0.129500001669
-0.133000001311
-0.129500001669
-0.12800000608
0.0348999984562
0.0348999984562
0.0348999984562
0.0491000004113
0.0348999984562
0.0348999984562
0.0348999984562
0.0469999983907
0.0469999983907
0.130500003695
0.129700005054
0.130099996924
0.129700005054
0.130500003695

>  <partial_bond_orders>  (52) 
1.0
1.0
1.0
1.0
2.0
1.0
2.0
1.0
2.0
1.0
1.0
1.0
1.0
1.0
1.0
1.0
1.0
1.0
1.0
1.0
1.0
1.0
1.0
1.0

>  <atom_types>  (52) 
c3
c3
c3
c3
ca
ca
ca
ca
ca
ca
hc
hc
hc
hc
hc
hc
hc
hc
hc
ha
ha
ha
ha
ha

>  <target>  (52) 
0.16

>  <cal>  (52) 
-0.257

$$$$
mobley_5627459
     RDKit          3D

 13 12  0  0  0  0  0  0  0  0999 V2000
   -0.4390   -0.8920    0.4600 C   0  0  0  0  0  0  0  0  0  0  0  0
   -1.9420   -0.7230    0.6490 C   0  0  0  0  0  0  0  0  0  0  0  0
   -2.5620   -1.9750    1.2570 C   0  0  0  0  0  0  0  0  0  0  0  0
   -2.1990    0.5040    1.5020 C   0  0  0  0  0  0  0  0  0  0  0  0
   -2.7800    0.4930    2.5830 O   0  0  0  0  0  0  0  0  0  0  0  0
    0.0000    0.0000    0.0000 H   0  0  0  0  0  0  0  0  0  0  0  0
    0.0000    0.0000    0.0000 H   0  0  0  0  0  0  0  0  0  0  0  0
    0.0000    0.0000    0.0000 H   0  0  0  0  0  0  0  0  0  0  0  0
    0.0000    0.0000    0.0000 H   0  0  0  0  0  0  0  0  0  0  0  0
    0.0000    0.0000    0.0000 H   0  0  0  0  0  0  0  0  0  0  0  0
    0.0000    0.0000    0.0000 H   0  0  0  0  0  0  0  0  0  0  0  0
    0.0000    0.0000    0.0000 H   0  0  0  0  0  0  0  0  0  0  0  0
    0.0000    0.0000    0.0000 H   0  0  0  0  0  0  0  0  0  0  0  0
  1  2  1  0
  2  3  1  0
  2  4  1  0
  4  5  2  0
  1  6  1  0
  1  7  1  0
  1  8  1  0
  2  9  1  0
  3 10  1  0
  3 11  1  0
  3 12  1  0
  4 13  1  0
M  END
>  <partial_charges>  (53) 
-0.0864000022411
-0.183300003409
-0.0864000022411
0.56559997797
-0.522000014782
0.0425999984145
0.0425999984145
0.0425999984145
0.0675999969244
0.0425999984145
0.0425999984145
0.0425999984145
-0.0104999998584

>  <partial_bond_orders>  (53) 
1.0
1.0
1.0
2.0
1.0
1.0
1.0
1.0
1.0
1.0
1.0
1.0

>  <atom_types>  (53) 
c3
c3
c3
c
o
hc
hc
hc
hc
hc
hc
hc
h4

>  <target>  (53) 
-2.86

>  <cal>  (53) 
-2.968

$$$$
mobley_282648
     RDKit          3D

 18 19  0  0  0  0  0  0  0  0999 V2000
   -0.4970   -2.0340    0.4940 C   0  0  0  0  0  0  0  0  0  0  0  0
    0.3500   -1.0280    0.0390 C   0  0  0  0  0  0  0  0  0  0  0  0
    1.6480   -1.3370   -0.3660 C   0  0  0  0  0  0  0  0  0  0  0  0
    2.1170   -2.6600   -0.3220 C   0  0  0  0  0  0  0  0  0  0  0  0
    3.4210   -2.9900   -0.7270 C   0  0  0  0  0  0  0  0  0  0  0  0
    3.8690   -4.3100   -0.6760 C   0  0  0  0  0  0  0  0  0  0  0  0
    3.0230   -5.3170   -0.2210 C   0  0  0  0  0  0  0  0  0  0  0  0
    1.7240   -5.0070    0.1850 C   0  0  0  0  0  0  0  0  0  0  0  0
    1.2560   -3.6840    0.1400 C   0  0  0  0  0  0  0  0  0  0  0  0
   -0.0480   -3.3540    0.5450 C   0  0  0  0  0  0  0  0  0  0  0  0
    0.0000    0.0000    0.0000 H   0  0  0  0  0  0  0  0  0  0  0  0
    0.0000    0.0000    0.0000 H   0  0  0  0  0  0  0  0  0  0  0  0
    0.0000    0.0000    0.0000 H   0  0  0  0  0  0  0  0  0  0  0  0
    0.0000    0.0000    0.0000 H   0  0  0  0  0  0  0  0  0  0  0  0
    0.0000    0.0000    0.0000 H   0  0  0  0  0  0  0  0  0  0  0  0
    0.0000    0.0000    0.0000 H   0  0  0  0  0  0  0  0  0  0  0  0
    0.0000    0.0000    0.0000 H   0  0  0  0  0  0  0  0  0  0  0  0
    0.0000    0.0000    0.0000 H   0  0  0  0  0  0  0  0  0  0  0  0
  1 10  2  0
  1  2  1  0
  2  3  2  0
  3  4  1  0
  4  9  2  0
  4  5  1  0
  5  6  2  0
  6  7  1  0
  7  8  2  0
  8  9  1  0
  9 10  1  0
  1 11  1  0
  2 12  1  0
  3 13  1  0
  5 14  1  0
  6 15  1  0
  7 16  1  0
  8 17  1  0
 10 18  1  0
M  END
>  <partial_charges>  (54) 
-0.127700001001
-0.127599999309
-0.117700003088
-0.0368999987841
-0.117700003088
-0.127599999309
-0.127599999309
-0.117700003088
-0.0368999987841
-0.117700003088
0.131799995899
0.131799995899
0.131899997592
0.131899997592
0.131799995899
0.131799995899
0.131899997592
0.131899997592

>  <partial_bond_orders>  (54) 
2.0
1.0
2.0
1.0
2.0
1.0
2.0
1.0
2.0
1.0
1.0
1.0
1.0
1.0
1.0
1.0
1.0
1.0
1.0

>  <atom_types>  (54) 
ca
ca
ca
ca
ca
ca
ca
ca
ca
ca
ha
ha
ha
ha
ha
ha
ha
ha

>  <target>  (54) 
-2.4

>  <cal>  (54) 
-3.213

$$$$
mobley_5665561
     RDKit          3D

 24 25  0  0  0  0  0  0  0  0999 V2000
   -1.8850   -1.7020    0.9270 C   0  0  0  0  0  0  0  0  0  0  0  0
   -0.4970   -2.0340    0.4940 C   0  0  0  0  0  0  0  0  0  0  0  0
    0.3500   -1.0280    0.0390 C   0  0  0  0  0  0  0  0  0  0  0  0
    1.6480   -1.3370   -0.3660 C   0  0  0  0  0  0  0  0  0  0  0  0
    2.1170   -2.6600   -0.3220 C   0  0  0  0  0  0  0  0  0  0  0  0
    3.4210   -2.9900   -0.7270 C   0  0  0  0  0  0  0  0  0  0  0  0
    3.8690   -4.3100   -0.6760 C   0  0  0  0  0  0  0  0  0  0  0  0
    3.0230   -5.3170   -0.2210 C   0  0  0  0  0  0  0  0  0  0  0  0
    1.7240   -5.0070    0.1850 C   0  0  0  0  0  0  0  0  0  0  0  0
    1.2560   -3.6840    0.1400 C   0  0  0  0  0  0  0  0  0  0  0  0
   -0.0480   -3.3540    0.5450 C   0  0  0  0  0  0  0  0  0  0  0  0
    2.5070   -0.2070   -0.8450 C   0  0  0  0  0  0  0  0  0  0  0  0
    0.0000    0.0000    0.0000 H   0  0  0  0  0  0  0  0  0  0  0  0
    0.0000    0.0000    0.0000 H   0  0  0  0  0  0  0  0  0  0  0  0
    0.0000    0.0000    0.0000 H   0  0  0  0  0  0  0  0  0  0  0  0
    0.0000    0.0000    0.0000 H   0  0  0  0  0  0  0  0  0  0  0  0
    0.0000    0.0000    0.0000 H   0  0  0  0  0  0  0  0  0  0  0  0
    0.0000    0.0000    0.0000 H   0  0  0  0  0  0  0  0  0  0  0  0
    0.0000    0.0000    0.0000 H   0  0  0  0  0  0  0  0  0  0  0  0
    0.0000    0.0000    0.0000 H   0  0  0  0  0  0  0  0  0  0  0  0
    0.0000    0.0000    0.0000 H   0  0  0  0  0  0  0  0  0  0  0  0
    0.0000    0.0000    0.0000 H   0  0  0  0  0  0  0  0  0  0  0  0
    0.0000    0.0000    0.0000 H   0  0  0  0  0  0  0  0  0  0  0  0
    0.0000    0.0000    0.0000 H   0  0  0  0  0  0  0  0  0  0  0  0
  1  2  1  0
  2 11  2  0
  2  3  1  0
  3  4  2  0
  4  5  1  0
  5 10  2  0
  5  6  1  0
  6  7  2  0
  7  8  1  0
  8  9  2  0
  9 10  1  0
 10 11  1  0
  4 12  1  0
  1 13  1  0
  1 14  1  0
  1 15  1  0
  3 16  1  0
  6 17  1  0
  7 18  1  0
  8 19  1  0
  9 20  1  0
 11 21  1  0
 12 22  1  0
 12 23  1  0
 12 24  1  0
M  END
>  <partial_charges>  (55) 
-0.0540000014007
-0.0701000019908
-0.129299998283
-0.0608999989927
-0.0335999988019
-0.116999998689
-0.131500005722
-0.127599999309
-0.11930000037
-0.0297999996692
-0.127200007439
-0.056099999696
0.0443000011146
0.0443000011146
0.0443000011146
0.131400004029
0.13220000267
0.130199998617
0.131500005722
0.131500005722
0.131500005722
0.0450999997556
0.0450999997556
0.0450999997556

>  <partial_bond_orders>  (55) 
1.0
2.0
1.0
2.0
1.0
2.0
1.0
2.0
1.0
2.0
1.0
1.0
1.0
1.0
1.0
1.0
1.0
1.0
1.0
1.0
1.0
1.0
1.0
1.0
1.0

>  <atom_types>  (55) 
c3
ca
ca
ca
ca
ca
ca
ca
ca
ca
ca
c3
hc
hc
hc
ha
ha
ha
ha
ha
ha
hc
hc
hc

>  <target>  (55) 
-2.47

>  <cal>  (55) 
-2.995

$$$$
mobley_7378987
     RDKit          3D

 24 25  0  0  0  0  0  0  0  0999 V2000
    6.0480    2.9530   -1.7310 C   0  0  0  0  0  0  0  0  0  0  0  0
    4.9730    2.0840   -1.3170 N   0  0  0  0  0  0  0  0  0  0  0  0
    5.1110    0.7770   -0.9260 C   0  0  0  0  0  0  0  0  0  0  0  0
    3.9560    0.2330   -0.6040 N   0  0  0  0  0  0  0  0  0  0  0  0
    3.0450    1.2360   -0.7980 C   0  0  0  0  0  0  0  0  0  0  0  0
    3.6440    2.3850   -1.2370 C   0  0  0  0  0  0  0  0  0  0  0  0
    2.9520    3.5990   -1.5260 C   0  0  0  0  0  0  0  0  0  0  0  0
    3.5080    4.6220   -1.9180 O   0  0  0  0  0  0  0  0  0  0  0  0
    1.5560    3.4680   -1.3040 N   0  0  0  0  0  0  0  0  0  0  0  0
    0.8630    2.2900   -0.8430 C   0  0  0  0  0  0  0  0  0  0  0  0
   -0.3620    2.2780   -0.6780 O   0  0  0  0  0  0  0  0  0  0  0  0
    1.6740    1.1550   -0.5930 N   0  0  0  0  0  0  0  0  0  0  0  0
    1.0740   -0.0870   -0.1240 C   0  0  0  0  0  0  0  0  0  0  0  0
    0.7180    4.6350   -1.5590 C   0  0  0  0  0  0  0  0  0  0  0  0
    0.0000    0.0000    0.0000 H   0  0  0  0  0  0  0  0  0  0  0  0
    0.0000    0.0000    0.0000 H   0  0  0  0  0  0  0  0  0  0  0  0
    0.0000    0.0000    0.0000 H   0  0  0  0  0  0  0  0  0  0  0  0
    0.0000    0.0000    0.0000 H   0  0  0  0  0  0  0  0  0  0  0  0
    0.0000    0.0000    0.0000 H   0  0  0  0  0  0  0  0  0  0  0  0
    0.0000    0.0000    0.0000 H   0  0  0  0  0  0  0  0  0  0  0  0
    0.0000    0.0000    0.0000 H   0  0  0  0  0  0  0  0  0  0  0  0
    0.0000    0.0000    0.0000 H   0  0  0  0  0  0  0  0  0  0  0  0
    0.0000    0.0000    0.0000 H   0  0  0  0  0  0  0  0  0  0  0  0
    0.0000    0.0000    0.0000 H   0  0  0  0  0  0  0  0  0  0  0  0
  1  2  1  0
  2  6  1  0
  2  3  1  0
  3  4  2  0
  4  5  1  0
  5 12  1  0
  5  6  2  0
  6  7  1  0
  7  8  2  0
  7  9  1  0
  9 10  1  0
 10 11  2  0
 10 12  1  0
 12 13  1  0
  9 14  1  0
  1 15  1  0
  1 16  1  0
  1 17  1  0
  3 18  1  0
 13 19  1  0
 13 20  1  0
 13 21  1  0
 14 22  1  0
 14 23  1  0
 14 24  1  0
M  END
>  <partial_charges>  (56) 
0.0156999994069
-0.150199994445
0.439599990845
-0.684199988842
0.483799993992
-0.345200002193
0.763499975204
-0.627499997616
-0.485199987888
0.812099993229
-0.636500000954
-0.413800001144
0.090499997139
0.0795999988914
0.069200001657
0.069200001657
0.069200001657
0.0706000030041
0.0631000027061
0.0631000027061
0.0631000027061
0.0634000003338
0.0634000003338
0.0634000003338

>  <partial_bond_orders>  (56) 
1.0
1.0
1.0
2.0
1.0
1.0
2.0
1.0
2.0
1.0
1.0
2.0
1.0
1.0
1.0
1.0
1.0
1.0
1.0
1.0
1.0
1.0
1.0
1.0
1.0

>  <atom_types>  (56) 
c3
na
cc
nd
cd
cc
c
o
n
c
o
n
c3
c3
h1
h1
h1
h5
h1
h1
h1
h1
h1
h1

>  <target>  (56) 
-12.64

>  <cal>  (56) 
-17.621

$$$$
mobley_7261305
     RDKit          3D

  6  5  0  0  0  0  0  0  0  0999 V2000
   -0.8080    0.5700   -0.2480 N   0  0  0  0  0  0  0  0  0  0  0  0
   -1.9600   -0.2580   -0.3170 N   0  0  0  0  0  0  0  0  0  0  0  0
    0.0000    0.0000    0.0000 H   0  0  0  0  0  0  0  0  0  0  0  0
    0.0000    0.0000    0.0000 H   0  0  0  0  0  0  0  0  0  0  0  0
    0.0000    0.0000    0.0000 H   0  0  0  0  0  0  0  0  0  0  0  0
    0.0000    0.0000    0.0000 H   0  0  0  0  0  0  0  0  0  0  0  0
  1  2  1  0
  1  3  1  0
  1  4  1  0
  2  5  1  0
  2  6  1  0
M  END
>  <partial_charges>  (57) 
-0.673600018024
-0.673500001431
0.336800009012
0.336800009012
0.336800009012
0.336800009012

>  <partial_bond_orders>  (57) 
1.0
1.0
1.0
1.0
1.0

>  <atom_types>  (57) 
n3
n3
hn
hn
hn
hn

>  <target>  (57) 
-9.3

>  <cal>  (57) 
-6.508

$$$$
mobley_9617923
     RDKit          3D

 31 30  0  0  0  0  0  0  0  0999 V2000
   -4.0260   -8.6530    6.5590 C   0  0  0  0  0  0  0  0  0  0  0  0
   -3.7980   -7.9690    5.2200 C   0  0  0  0  0  0  0  0  0  0  0  0
   -2.8520   -6.7760    5.3550 C   0  0  0  0  0  0  0  0  0  0  0  0
   -2.6250   -6.0910    4.0060 C   0  0  0  0  0  0  0  0  0  0  0  0
   -1.6780   -4.8970    4.1410 C   0  0  0  0  0  0  0  0  0  0  0  0
   -1.4510   -4.2130    2.7920 C   0  0  0  0  0  0  0  0  0  0  0  0
   -0.5050   -3.0190    2.9260 C   0  0  0  0  0  0  0  0  0  0  0  0
   -0.2780   -2.3350    1.5790 C   0  0  0  0  0  0  0  0  0  0  0  0
    0.6580   -1.1450    1.6810 C   0  0  0  0  0  0  0  0  0  0  0  0
    1.1690   -0.7850    2.7410 O   0  0  0  0  0  0  0  0  0  0  0  0
    0.9360   -0.4080    0.3960 C   0  0  0  0  0  0  0  0  0  0  0  0
    0.0000    0.0000    0.0000 H   0  0  0  0  0  0  0  0  0  0  0  0
    0.0000    0.0000    0.0000 H   0  0  0  0  0  0  0  0  0  0  0  0
    0.0000    0.0000    0.0000 H   0  0  0  0  0  0  0  0  0  0  0  0
    0.0000    0.0000    0.0000 H   0  0  0  0  0  0  0  0  0  0  0  0
    0.0000    0.0000    0.0000 H   0  0  0  0  0  0  0  0  0  0  0  0
    0.0000    0.0000    0.0000 H   0  0  0  0  0  0  0  0  0  0  0  0
    0.0000    0.0000    0.0000 H   0  0  0  0  0  0  0  0  0  0  0  0
    0.0000    0.0000    0.0000 H   0  0  0  0  0  0  0  0  0  0  0  0
    0.0000    0.0000    0.0000 H   0  0  0  0  0  0  0  0  0  0  0  0
    0.0000    0.0000    0.0000 H   0  0  0  0  0  0  0  0  0  0  0  0
    0.0000    0.0000    0.0000 H   0  0  0  0  0  0  0  0  0  0  0  0
    0.0000    0.0000    0.0000 H   0  0  0  0  0  0  0  0  0  0  0  0
    0.0000    0.0000    0.0000 H   0  0  0  0  0  0  0  0  0  0  0  0
    0.0000    0.0000    0.0000 H   0  0  0  0  0  0  0  0  0  0  0  0
    0.0000    0.0000    0.0000 H   0  0  0  0  0  0  0  0  0  0  0  0
    0.0000    0.0000    0.0000 H   0  0  0  0  0  0  0  0  0  0  0  0
    0.0000    0.0000    0.0000 H   0  0  0  0  0  0  0  0  0  0  0  0
    0.0000    0.0000    0.0000 H   0  0  0  0  0  0  0  0  0  0  0  0
    0.0000    0.0000    0.0000 H   0  0  0  0  0  0  0  0  0  0  0  0
    0.0000    0.0000    0.0000 H   0  0  0  0  0  0  0  0  0  0  0  0
  1  2  1  0
  2  3  1  0
  3  4  1  0
  4  5  1  0
  5  6  1  0
  6  7  1  0
  7  8  1  0
  8  9  1  0
  9 10  2  0
  9 11  1  0
  1 12  1  0
  1 13  1  0
  1 14  1  0
  2 15  1  0
  2 16  1  0
  3 17  1  0
  3 18  1  0
  4 19  1  0
  4 20  1  0
  5 21  1  0
  5 22  1  0
  6 23  1  0
  6 24  1  0
  7 25  1  0
  7 26  1  0
  8 27  1  0
  8 28  1  0
 11 29  1  0
 11 30  1  0
 11 31  1  0
M  END
>  <partial_charges>  (58) 
-0.0917999967933
-0.0790999978781
-0.0785999968648
-0.077500000596
-0.0768000036478
-0.0766000002623
-0.0741999968886
-0.178100004792
0.562900006771
-0.533699989319
-0.203600004315
0.033100001514
0.033100001514
0.033100001514
0.0377000011504
0.0377000011504
0.0390999987721
0.0390999987721
0.0375000014901
0.0375000014901
0.0416000001132
0.0416000001132
0.0364000014961
0.0364000014961
0.0538999997079
0.0538999997079
0.0630000010133
0.0630000010133
0.0631999969482
0.0631999969482
0.0631999969482

>  <partial_bond_orders>  (58) 
1.0
1.0
1.0
1.0
1.0
1.0
1.0
1.0
2.0
1.0
1.0
1.0
1.0
1.0
1.0
1.0
1.0
1.0
1.0
1.0
1.0
1.0
1.0
1.0
1.0
1.0
1.0
1.0
1.0
1.0

>  <atom_types>  (58) 
c3
c3
c3
c3
c3
c3
c3
c3
c
o
c3
hc
hc
hc
hc
hc
hc
hc
hc
hc
hc
hc
hc
hc
hc
hc
hc
hc
hc
hc
hc

>  <target>  (58) 
-2.34

>  <cal>  (58) 
-2.573

$$$$
mobley_2864987
     RDKit          3D

 18 17  0  0  1  0  0  0  0  0999 V2000
   -0.3310    0.7610   -0.7600 C   0  0  0  0  0  0  0  0  0  0  0  0
    0.1200    0.3160   -2.1430 C   0  0  0  0  0  0  0  0  0  0  0  0
   -0.5210   -1.0170   -2.5370 C   0  0  0  0  0  0  0  0  0  0  0  0
   -0.0770   -1.4810   -3.9280 C   0  0  0  0  0  0  0  0  0  0  0  0
   -0.7420   -2.7930   -4.3190 C   0  0  0  0  0  0  0  0  0  0  0  0
   -0.4070   -0.4940   -4.9020 O   0  0  0  0  0  0  0  0  0  0  0  0
    0.0000    0.0000    0.0000 H   0  0  0  0  0  0  0  0  0  0  0  0
    0.0000    0.0000    0.0000 H   0  0  0  0  0  0  0  0  0  0  0  0
    0.0000    0.0000    0.0000 H   0  0  0  0  0  0  0  0  0  0  0  0
    0.0000    0.0000    0.0000 H   0  0  0  0  0  0  0  0  0  0  0  0
    0.0000    0.0000    0.0000 H   0  0  0  0  0  0  0  0  0  0  0  0
    0.0000    0.0000    0.0000 H   0  0  0  0  0  0  0  0  0  0  0  0
    0.0000    0.0000    0.0000 H   0  0  0  0  0  0  0  0  0  0  0  0
    0.0000    0.0000    0.0000 H   0  0  0  0  0  0  0  0  0  0  0  0
    0.0000    0.0000    0.0000 H   0  0  0  0  0  0  0  0  0  0  0  0
    0.0000    0.0000    0.0000 H   0  0  0  0  0  0  0  0  0  0  0  0
    0.0000    0.0000    0.0000 H   0  0  0  0  0  0  0  0  0  0  0  0
    0.0000    0.0000    0.0000 H   0  0  0  0  0  0  0  0  0  0  0  0
  1  2  1  0
  2  3  1  0
  3  4  1  0
  4  5  1  0
  4  6  1  0
  1  7  1  0
  1  8  1  0
  1  9  1  0
  2 10  1  0
  2 11  1  0
  3 12  1  0
  3 13  1  0
  4 14  1  0
  5 15  1  0
  5 16  1  0
  5 17  1  0
  6 18  1  0
M  END
>  <partial_charges>  (59) 
-0.0917999967933
-0.0790000036359
-0.0720999985933
0.139400005341
0.0285000000149
-0.130600005388
-0.59969997406
0.0320000015199
0.0320000015199
0.0320000015199
0.0469999983907
0.0469999983907
0.0461000017822
0.0461000017822
0.0421000011265
0.0421000011265
0.0421000011265
0.396699994802

>  <partial_bond_orders>  (59) 
1.0
1.0
1.0
1.0
1.0
1.0
1.0
1.0
1.0
1.0
1.0
1.0
1.0
1.0
1.0
1.0
1.0

>  <atom_types>  (59) 
c3
c3
c3
c3
h1
c3
oh
hc
hc
hc
hc
hc
hc
hc
hc
hc
hc
ho

>  <target>  (59) 
-4.39

>  <cal>  (59) 
-2.945

$$$$
mobley_2310185
     RDKit          3D

  9  8  0  0  0  0  0  0  0  0999 V2000
    1.0620   -0.2680   -0.0010 C   0  0  0  0  0  0  0  0  0  0  0  0
    1.9100    0.9130   -0.4220 C   0  0  0  0  0  0  0  0  0  0  0  0
    1.5170    1.3240   -1.7230 O   0  0  0  0  0  0  0  0  0  0  0  0
    0.0000    0.0000    0.0000 H   0  0  0  0  0  0  0  0  0  0  0  0
    0.0000    0.0000    0.0000 H   0  0  0  0  0  0  0  0  0  0  0  0
    0.0000    0.0000    0.0000 H   0  0  0  0  0  0  0  0  0  0  0  0
    0.0000    0.0000    0.0000 H   0  0  0  0  0  0  0  0  0  0  0  0
    0.0000    0.0000    0.0000 H   0  0  0  0  0  0  0  0  0  0  0  0
    0.0000    0.0000    0.0000 H   0  0  0  0  0  0  0  0  0  0  0  0
  1  2  1  0
  2  3  1  0
  1  4  1  0
  1  5  1  0
  1  6  1  0
  2  7  1  0
  2  8  1  0
  3  9  1  0
M  END
>  <partial_charges>  (60) 
-0.0967999994755
0.129700005054
-0.599500000477
0.0447999984026
0.0447999984026
0.0447999984026
0.017100000754
0.017100000754
0.397899985313

>  <partial_bond_orders>  (60) 
1.0
1.0
1.0
1.0
1.0
1.0
1.0
1.0

>  <atom_types>  (60) 
c3
c3
oh
hc
hc
hc
h1
h1
ho

>  <target>  (60) 
-5.0

>  <cal>  (60) 
-3.394

$$$$
mobley_197466
     RDKit          3D

 14 14  0  0  0  0  0  0  0  0999 V2000
    1.1140   -1.5040    2.2990 C   0  0  0  0  0  0  0  0  0  0  0  0
    0.9130   -0.1180    1.7500 C   0  0  0  0  0  0  0  0  0  0  0  0
    1.1920    0.8830    2.4080 O   0  0  0  0  0  0  0  0  0  0  0  0
    0.3680   -0.0190    0.3920 C   0  0  0  0  0  0  0  0  0  0  0  0
   -0.8740   -0.7910    0.0380 C   0  0  0  0  0  0  0  0  0  0  0  0
   -0.9350    0.7010    0.1700 C   0  0  0  0  0  0  0  0  0  0  0  0
    0.0000    0.0000    0.0000 H   0  0  0  0  0  0  0  0  0  0  0  0
    0.0000    0.0000    0.0000 H   0  0  0  0  0  0  0  0  0  0  0  0
    0.0000    0.0000    0.0000 H   0  0  0  0  0  0  0  0  0  0  0  0
    0.0000    0.0000    0.0000 H   0  0  0  0  0  0  0  0  0  0  0  0
    0.0000    0.0000    0.0000 H   0  0  0  0  0  0  0  0  0  0  0  0
    0.0000    0.0000    0.0000 H   0  0  0  0  0  0  0  0  0  0  0  0
    0.0000    0.0000    0.0000 H   0  0  0  0  0  0  0  0  0  0  0  0
    0.0000    0.0000    0.0000 H   0  0  0  0  0  0  0  0  0  0  0  0
  1  2  1  0
  2  3  2  0
  2  4  1  0
  4  6  1  0
  4  5  1  0
  5  6  1  0
  1  7  1  0
  1  8  1  0
  1  9  1  0
  4 10  1  0
  5 11  1  0
  5 12  1  0
  6 13  1  0
  6 14  1  0
M  END
>  <partial_charges>  (61) 
-0.198699995875
0.591600000858
-0.527300000191
-0.237299993634
-0.115299999714
-0.115299999714
0.0640000030398
0.0640000030398
0.0640000030398
0.105200000107
0.0763000026345
0.0763000026345
0.0763000026345
0.0763000026345

>  <partial_bond_orders>  (61) 
1.0
2.0
1.0
1.0
1.0
1.0
1.0
1.0
1.0
1.0
1.0
1.0
1.0
1.0

>  <atom_types>  (61) 
c3
c
o
cx
cx
cx
hc
hc
hc
hc
hc
hc
hc
hc

>  <target>  (61) 
-4.61

>  <cal>  (61) 
-3.043

$$$$
mobley_1857976
     RDKit          3D

  8  7  0  0  0  0  0  0  0  0999 V2000
   -0.0310    0.4540   -0.6220 C   0  0  0  0  0  0  0  0  0  0  0  0
    0.1910   -0.5800    0.4690 C   0  0  0  0  0  0  0  0  0  0  0  0
   -0.0800    0.1010    2.0920 Cl  0  0  0  0  0  0  0  0  0  0  0  0
   -1.6910    1.0960   -0.5970 Cl  0  0  0  0  0  0  0  0  0  0  0  0
    0.0000    0.0000    0.0000 H   0  0  0  0  0  0  0  0  0  0  0  0
    0.0000    0.0000    0.0000 H   0  0  0  0  0  0  0  0  0  0  0  0
    0.0000    0.0000    0.0000 H   0  0  0  0  0  0  0  0  0  0  0  0
    0.0000    0.0000    0.0000 H   0  0  0  0  0  0  0  0  0  0  0  0
  1  2  1  0
  2  3  1  0
  1  4  1  0
  1  5  1  0
  1  6  1  0
  2  7  1  0
  2  8  1  0
M  END
>  <partial_charges>  (62) 
0.019999999553
0.019999999553
-0.17159999907
-0.17159999907
0.0758000016212
0.0758000016212
0.0758000016212
0.0758000016212

>  <partial_bond_orders>  (62) 
1.0
1.0
1.0
1.0
1.0
1.0
1.0

>  <atom_types>  (62) 
c3
c3
cl
cl
h1
h1
h1
h1

>  <target>  (62) 
-1.79

>  <cal>  (62) 
-0.363

$$$$
mobley_6250025
     RDKit          3D

 20 19  0  0  0  0  0  0  0  0999 V2000
   -0.7810   -1.8520    2.5100 C   0  0  0  0  0  0  0  0  0  0  0  0
    0.1760   -1.3620    1.4360 C   0  0  0  0  0  0  0  0  0  0  0  0
   -0.4640   -0.2790    0.5670 C   0  0  0  0  0  0  0  0  0  0  0  0
    0.5020    0.2110   -0.5130 C   0  0  0  0  0  0  0  0  0  0  0  0
   -0.1390    1.2940   -1.3830 C   0  0  0  0  0  0  0  0  0  0  0  0
    0.8310    1.7810   -2.4600 C   0  0  0  0  0  0  0  0  0  0  0  0
   -0.0790    3.2940   -3.6670 I   0  0  0  0  0  0  0  0  0  0  0  0
    0.0000    0.0000    0.0000 H   0  0  0  0  0  0  0  0  0  0  0  0
    0.0000    0.0000    0.0000 H   0  0  0  0  0  0  0  0  0  0  0  0
    0.0000    0.0000    0.0000 H   0  0  0  0  0  0  0  0  0  0  0  0
    0.0000    0.0000    0.0000 H   0  0  0  0  0  0  0  0  0  0  0  0
    0.0000    0.0000    0.0000 H   0  0  0  0  0  0  0  0  0  0  0  0
    0.0000    0.0000    0.0000 H   0  0  0  0  0  0  0  0  0  0  0  0
    0.0000    0.0000    0.0000 H   0  0  0  0  0  0  0  0  0  0  0  0
    0.0000    0.0000    0.0000 H   0  0  0  0  0  0  0  0  0  0  0  0
    0.0000    0.0000    0.0000 H   0  0  0  0  0  0  0  0  0  0  0  0
    0.0000    0.0000    0.0000 H   0  0  0  0  0  0  0  0  0  0  0  0
    0.0000    0.0000    0.0000 H   0  0  0  0  0  0  0  0  0  0  0  0
    0.0000    0.0000    0.0000 H   0  0  0  0  0  0  0  0  0  0  0  0
    0.0000    0.0000    0.0000 H   0  0  0  0  0  0  0  0  0  0  0  0
  1  2  1  0
  2  3  1  0
  3  4  1  0
  4  5  1  0
  5  6  1  0
  6  7  1  0
  1  8  1  0
  1  9  1  0
  1 10  1  0
  2 11  1  0
  2 12  1  0
  3 13  1  0
  3 14  1  0
  4 15  1  0
  4 16  1  0
  5 17  1  0
  5 18  1  0
  6 19  1  0
  6 20  1  0
M  END
>  <partial_charges>  (63) 
-0.0921000018716
-0.0798999965191
-0.0786999985576
-0.0790000036359
-0.0764999985695
0.0696000009775
-0.253899991512
0.0337999984622
0.0337999984622
0.0337999984622
0.0384999997914
0.0384999997914
0.0410000011325
0.0410000011325
0.040600001812
0.040600001812
0.0527999997139
0.0527999997139
0.0715999975801
0.0715999975801

>  <partial_bond_orders>  (63) 
1.0
1.0
1.0
1.0
1.0
1.0
1.0
1.0
1.0
1.0
1.0
1.0
1.0
1.0
1.0
1.0
1.0
1.0
1.0

>  <atom_types>  (63) 
c3
c3
c3
c3
c3
c3
i
hc
hc
hc
hc
hc
hc
hc
hc
hc
hc
hc
h1
h1

>  <target>  (63) 
0.08

>  <cal>  (63) 
0.043

$$$$
mobley_6198745
     RDKit          3D

 29 28  0  0  0  0  0  0  0  0999 V2000
    1.1590    2.1230    3.2630 C   0  0  0  0  0  0  0  0  0  0  0  0
    0.9660    1.0110    2.2760 C   0  0  0  0  0  0  0  0  0  0  0  0
    0.7160   -0.1460    2.5870 O   0  0  0  0  0  0  0  0  0  0  0  0
    1.1110    1.4950    1.0100 O   0  0  0  0  0  0  0  0  0  0  0  0
    0.9520    0.5380   -0.0330 C   0  0  0  0  0  0  0  0  0  0  0  0
    1.1440    1.2330   -1.3740 C   0  0  0  0  0  0  0  0  0  0  0  0
    0.9860    0.2570   -2.5350 C   0  0  0  0  0  0  0  0  0  0  0  0
    1.9530   -0.7820   -2.4280 O   0  0  0  0  0  0  0  0  0  0  0  0
    1.9180   -1.7280   -3.4130 C   0  0  0  0  0  0  0  0  0  0  0  0
    1.1430   -1.7570   -4.3590 O   0  0  0  0  0  0  0  0  0  0  0  0
    2.9860   -2.7520   -3.1720 C   0  0  0  0  0  0  0  0  0  0  0  0
    2.4670    1.7730   -1.4060 O   0  0  0  0  0  0  0  0  0  0  0  0
    2.6180    2.9140   -2.1380 C   0  0  0  0  0  0  0  0  0  0  0  0
    1.7400    3.5020   -2.7550 O   0  0  0  0  0  0  0  0  0  0  0  0
    4.0470    3.3630   -2.0810 C   0  0  0  0  0  0  0  0  0  0  0  0
    0.0000    0.0000    0.0000 H   0  0  0  0  0  0  0  0  0  0  0  0
    0.0000    0.0000    0.0000 H   0  0  0  0  0  0  0  0  0  0  0  0
    0.0000    0.0000    0.0000 H   0  0  0  0  0  0  0  0  0  0  0  0
    0.0000    0.0000    0.0000 H   0  0  0  0  0  0  0  0  0  0  0  0
    0.0000    0.0000    0.0000 H   0  0  0  0  0  0  0  0  0  0  0  0
    0.0000    0.0000    0.0000 H   0  0  0  0  0  0  0  0  0  0  0  0
    0.0000    0.0000    0.0000 H   0  0  0  0  0  0  0  0  0  0  0  0
    0.0000    0.0000    0.0000 H   0  0  0  0  0  0  0  0  0  0  0  0
    0.0000    0.0000    0.0000 H   0  0  0  0  0  0  0  0  0  0  0  0
    0.0000    0.0000    0.0000 H   0  0  0  0  0  0  0  0  0  0  0  0
    0.0000    0.0000    0.0000 H   0  0  0  0  0  0  0  0  0  0  0  0
    0.0000    0.0000    0.0000 H   0  0  0  0  0  0  0  0  0  0  0  0
    0.0000    0.0000    0.0000 H   0  0  0  0  0  0  0  0  0  0  0  0
    0.0000    0.0000    0.0000 H   0  0  0  0  0  0  0  0  0  0  0  0
  1  2  1  0
  2  3  2  0
  2  4  1  0
  4  5  1  0
  5  6  1  0
  6  7  1  0
  7  8  1  0
  8  9  1  0
  9 10  2  0
  9 11  1  0
  6 12  1  0
 12 13  1  0
 13 14  2  0
 13 15  1  0
  1 16  1  0
  1 17  1  0
  1 18  1  0
  5 19  1  0
  5 20  1  0
  6 21  1  0
  7 22  1  0
  7 23  1  0
 11 24  1  0
 11 25  1  0
 11 26  1  0
 15 27  1  0
 15 28  1  0
 15 29  1  0
M  END
>  <partial_charges>  (64) 
-0.149599999189
0.634400010109
-0.539399981499
-0.441399991512
0.12800000608
0.142900004983
0.12800000608
-0.441399991512
0.634400010109
-0.539399981499
-0.149599999189
-0.421000003815
0.636500000954
-0.544600009918
-0.148800000548
0.0773999989033
0.0773999989033
0.0773999989033
0.0697999969125
0.0697999969125
0.0957999974489
0.0697999969125
0.0697999969125
0.0773999989033
0.0773999989033
0.0773999989033
0.0772999972105
0.0772999972105
0.0772999972105

>  <partial_bond_orders>  (64) 
1.0
2.0
1.0
1.0
1.0
1.0
1.0
1.0
2.0
1.0
1.0
1.0
2.0
1.0
1.0
1.0
1.0
1.0
1.0
1.0
1.0
1.0
1.0
1.0
1.0
1.0
1.0
1.0

>  <atom_types>  (64) 
c3
c
o
os
c3
c3
c3
os
c
o
c3
os
c
o
c3
hc
hc
hc
h1
h1
h1
h1
h1
hc
hc
hc
hc
hc
hc

>  <target>  (64) 
-8.84

>  <cal>  (64) 
-12.333

$$$$
mobley_7943327
     RDKit          3D

 17 16  0  0  0  0  0  0  0  0999 V2000
   -0.8710    0.5470    0.3730 C   0  0  0  0  0  0  0  0  0  0  0  0
   -0.8820    0.5510    1.8920 C   0  0  0  0  0  0  0  0  0  0  0  0
   -2.0710    1.2980    2.4500 C   0  0  0  0  0  0  0  0  0  0  0  0
   -2.9380    1.8440    1.7810 O   0  0  0  0  0  0  0  0  0  0  0  0
   -2.0160    1.2610    3.8140 O   0  0  0  0  0  0  0  0  0  0  0  0
   -3.0830    1.9320    4.4930 C   0  0  0  0  0  0  0  0  0  0  0  0
   -2.8690    1.7950    5.9810 C   0  0  0  0  0  0  0  0  0  0  0  0
    0.0000    0.0000    0.0000 H   0  0  0  0  0  0  0  0  0  0  0  0
    0.0000    0.0000    0.0000 H   0  0  0  0  0  0  0  0  0  0  0  0
    0.0000    0.0000    0.0000 H   0  0  0  0  0  0  0  0  0  0  0  0
    0.0000    0.0000    0.0000 H   0  0  0  0  0  0  0  0  0  0  0  0
    0.0000    0.0000    0.0000 H   0  0  0  0  0  0  0  0  0  0  0  0
    0.0000    0.0000    0.0000 H   0  0  0  0  0  0  0  0  0  0  0  0
    0.0000    0.0000    0.0000 H   0  0  0  0  0  0  0  0  0  0  0  0
    0.0000    0.0000    0.0000 H   0  0  0  0  0  0  0  0  0  0  0  0
    0.0000    0.0000    0.0000 H   0  0  0  0  0  0  0  0  0  0  0  0
    0.0000    0.0000    0.0000 H   0  0  0  0  0  0  0  0  0  0  0  0
  1  2  1  0
  2  3  1  0
  3  4  2  0
  3  5  1  0
  5  6  1  0
  6  7  1  0
  1  8  1  0
  1  9  1  0
  1 10  1  0
  2 11  1  0
  2 12  1  0
  6 13  1  0
  6 14  1  0
  7 15  1  0
  7 16  1  0
  7 17  1  0
M  END
>  <partial_charges>  (65) 
-0.0939000025392
-0.129099994898
0.634400010109
-0.535499989986
-0.449900001287
0.138300001621
-0.130899995565
0.0472999997437
0.0472999997437
0.0472999997437
0.0764999985695
0.0764999985695
0.0636000037193
0.0636000037193
0.0482000000775
0.0482000000775
0.0482000000775

>  <partial_bond_orders>  (65) 
1.0
1.0
2.0
1.0
1.0
1.0
1.0
1.0
1.0
1.0
1.0
1.0
1.0
1.0
1.0
1.0

>  <atom_types>  (65) 
c3
c3
c
o
os
c3
c3
hc
hc
hc
hc
hc
h1
h1
hc
hc
hc

>  <target>  (65) 
-2.68

>  <cal>  (65) 
-3.221

$$$$
mobley_3639400
     RDKit          3D

 14 13  0  0  0  0  0  0  0  0999 V2000
   -0.1170    0.5380    0.9460 C   0  0  0  0  0  0  0  0  0  0  0  0
    0.5890   -0.2070    2.0670 C   0  0  0  0  0  0  0  0  0  0  0  0
    0.4430    0.5210    3.4030 C   0  0  0  0  0  0  0  0  0  0  0  0
    1.1540   -0.2330    4.5190 C   0  0  0  0  0  0  0  0  0  0  0  0
    0.9730    0.6280    6.0640 Cl  0  0  0  0  0  0  0  0  0  0  0  0
    0.0000    0.0000    0.0000 H   0  0  0  0  0  0  0  0  0  0  0  0
    0.0000    0.0000    0.0000 H   0  0  0  0  0  0  0  0  0  0  0  0
    0.0000    0.0000    0.0000 H   0  0  0  0  0  0  0  0  0  0  0  0
    0.0000    0.0000    0.0000 H   0  0  0  0  0  0  0  0  0  0  0  0
    0.0000    0.0000    0.0000 H   0  0  0  0  0  0  0  0  0  0  0  0
    0.0000    0.0000    0.0000 H   0  0  0  0  0  0  0  0  0  0  0  0
    0.0000    0.0000    0.0000 H   0  0  0  0  0  0  0  0  0  0  0  0
    0.0000    0.0000    0.0000 H   0  0  0  0  0  0  0  0  0  0  0  0
    0.0000    0.0000    0.0000 H   0  0  0  0  0  0  0  0  0  0  0  0
  1  2  1  0
  2  3  1  0
  3  4  1  0
  4  5  1  0
  1  6  1  0
  1  7  1  0
  1  8  1  0
  2  9  1  0
  2 10  1  0
  3 11  1  0
  3 12  1  0
  4 13  1  0
  4 14  1  0
M  END
>  <partial_charges>  (66) 
-0.0922000035644
-0.0807000026107
-0.0923999994993
0.0397000014782
-0.201800003648
0.0359999984503
0.0359999984503
0.0359999984503
0.0401999987662
0.0401999987662
0.056099999696
0.056099999696
0.0635000020266
0.0635000020266

>  <partial_bond_orders>  (66) 
1.0
1.0
1.0
1.0
1.0
1.0
1.0
1.0
1.0
1.0
1.0
1.0
1.0

>  <atom_types>  (66) 
c3
c3
c3
c3
cl
hc
hc
hc
hc
hc
hc
hc
h1
h1

>  <target>  (66) 
-0.16

>  <cal>  (66) 
0.993

$$$$
mobley_4395315
     RDKit          3D

 16 16  0  0  0  0  0  0  0  0999 V2000
    1.9680   -1.0330   -1.6050 C   0  0  0  0  0  0  0  0  0  0  0  0
    1.8850   -1.0360   -0.1120 C   0  0  0  0  0  0  0  0  0  0  0  0
    2.9210   -1.6310    0.6080 C   0  0  0  0  0  0  0  0  0  0  0  0
    2.8780   -1.6520    2.0020 C   0  0  0  0  0  0  0  0  0  0  0  0
    1.8000   -1.0790    2.6760 C   0  0  0  0  0  0  0  0  0  0  0  0
    0.7640   -0.4840    1.9550 C   0  0  0  0  0  0  0  0  0  0  0  0
    0.8070   -0.4630    0.5610 C   0  0  0  0  0  0  0  0  0  0  0  0
   -0.4930    0.2820   -0.2960 Cl  0  0  0  0  0  0  0  0  0  0  0  0
    3.8890   -2.2320    2.7060 O   0  0  0  0  0  0  0  0  0  0  0  0
    0.0000    0.0000    0.0000 H   0  0  0  0  0  0  0  0  0  0  0  0
    0.0000    0.0000    0.0000 H   0  0  0  0  0  0  0  0  0  0  0  0
    0.0000    0.0000    0.0000 H   0  0  0  0  0  0  0  0  0  0  0  0
    0.0000    0.0000    0.0000 H   0  0  0  0  0  0  0  0  0  0  0  0
    0.0000    0.0000    0.0000 H   0  0  0  0  0  0  0  0  0  0  0  0
    0.0000    0.0000    0.0000 H   0  0  0  0  0  0  0  0  0  0  0  0
    0.0000    0.0000    0.0000 H   0  0  0  0  0  0  0  0  0  0  0  0
  1  2  1  0
  2  7  2  0
  2  3  1  0
  3  4  2  0
  4  5  1  0
  5  6  2  0
  6  7  1  0
  7  8  1  0
  4  9  1  0
  1 10  1  0
  1 11  1  0
  1 12  1  0
  3 13  1  0
  5 14  1  0
  6 15  1  0
  9 16  1  0
M  END
>  <partial_charges>  (67) 
-0.0619000010192
-0.0296999998391
-0.155599996448
0.129600003362
-0.211799994111
-0.0817999988794
-0.0207000002265
-0.0973000004888
-0.494599997997
0.0538999997079
0.0538999997079
0.0538999997079
0.15530000627
0.138199999928
0.147799998522
0.420800000429

>  <partial_bond_orders>  (67) 
1.0
2.0
1.0
2.0
1.0
2.0
1.0
1.0
1.0
1.0
1.0
1.0
1.0
1.0
1.0
1.0

>  <atom_types>  (67) 
c3
ca
ca
ca
ca
ca
ca
cl
oh
hc
hc
hc
ha
ha
ha
ho

>  <target>  (67) 
-6.79

>  <cal>  (67) 
-5.14

$$$$
mobley_7829570
     RDKit          3D

 39 39  0  0  1  0  0  0  0  0999 V2000
   -5.9010    4.6440    1.6640 C   0  0  0  0  0  0  0  0  0  0  0  0
   -4.6960    3.7220    1.5610 C   0  0  0  0  0  0  0  0  0  0  0  0
   -3.5860    4.1430    2.5260 C   0  0  0  0  0  0  0  0  0  0  0  0
   -2.3630    3.2360    2.4450 C   0  0  0  0  0  0  0  0  0  0  0  0
   -1.3230    3.6340    3.3520 N   0  0  0  0  0  0  0  0  0  0  0  0
   -0.7510    4.9800    3.2250 C   0  0  0  0  0  0  0  0  0  0  0  0
   -0.1370    5.1460    1.8890 C   0  0  0  0  0  0  0  0  0  0  0  0
   -0.8530    2.7750    4.3600 C   0  0  0  0  0  0  0  0  0  0  0  0
    0.2100    1.9110    4.1000 C   0  0  0  0  0  0  0  0  0  0  0  0
    0.6760    1.0570    5.1000 C   0  0  0  0  0  0  0  0  0  0  0  0
    0.0790    1.0680    6.3600 C   0  0  0  0  0  0  0  0  0  0  0  0
   -0.9850    1.9320    6.6200 C   0  0  0  0  0  0  0  0  0  0  0  0
   -1.4510    2.7850    5.6200 C   0  0  0  0  0  0  0  0  0  0  0  0
   -2.5380    3.6560    5.9150 N   0  0  0  0  0  0  0  0  0  0  0  0
   -3.7070    3.2540    5.7110 O   0  0  0  0  0  0  0  0  0  0  0  0
   -2.2920    4.7970    6.3690 O   0  0  0  0  0  0  0  0  0  0  0  0
    0.5770    0.1560    7.4300 C   0  0  0  0  0  0  0  0  0  0  0  0
    1.6210   -0.6320    7.0350 F   0  0  0  0  0  0  0  0  0  0  0  0
    1.0260    0.8100    8.5410 F   0  0  0  0  0  0  0  0  0  0  0  0
   -0.3830   -0.7060    7.8750 F   0  0  0  0  0  0  0  0  0  0  0  0
    0.8410    1.8770    2.8240 N   0  0  0  0  0  0  0  0  0  0  0  0
    1.8160    2.6350    2.6120 O   0  0  0  0  0  0  0  0  0  0  0  0
    0.4020    1.0910    1.9520 O   0  0  0  0  0  0  0  0  0  0  0  0
    0.0000    0.0000    0.0000 H   0  0  0  0  0  0  0  0  0  0  0  0
    0.0000    0.0000    0.0000 H   0  0  0  0  0  0  0  0  0  0  0  0
    0.0000    0.0000    0.0000 H   0  0  0  0  0  0  0  0  0  0  0  0
    0.0000    0.0000    0.0000 H   0  0  0  0  0  0  0  0  0  0  0  0
    0.0000    0.0000    0.0000 H   0  0  0  0  0  0  0  0  0  0  0  0
    0.0000    0.0000    0.0000 H   0  0  0  0  0  0  0  0  0  0  0  0
    0.0000    0.0000    0.0000 H   0  0  0  0  0  0  0  0  0  0  0  0
    0.0000    0.0000    0.0000 H   0  0  0  0  0  0  0  0  0  0  0  0
    0.0000    0.0000    0.0000 H   0  0  0  0  0  0  0  0  0  0  0  0
    0.0000    0.0000    0.0000 H   0  0  0  0  0  0  0  0  0  0  0  0
    0.0000    0.0000    0.0000 H   0  0  0  0  0  0  0  0  0  0  0  0
    0.0000    0.0000    0.0000 H   0  0  0  0  0  0  0  0  0  0  0  0
    0.0000    0.0000    0.0000 H   0  0  0  0  0  0  0  0  0  0  0  0
    0.0000    0.0000    0.0000 H   0  0  0  0  0  0  0  0  0  0  0  0
    0.0000    0.0000    0.0000 H   0  0  0  0  0  0  0  0  0  0  0  0
    0.0000    0.0000    0.0000 H   0  0  0  0  0  0  0  0  0  0  0  0
  1  2  1  0
  2  3  1  0
  3  4  1  0
  4  5  1  0
  5  6  1  0
  6  7  1  0
  5  8  1  0
  8 13  2  0
  8  9  1  0
  9 10  2  0
 10 11  1  0
 11 12  2  0
 12 13  1  0
 13 14  1  0
 14 15  1  0
 14 16  1  0
 11 17  1  0
 17 18  1  0
 17 19  1  0
 17 20  1  0
  9 21  1  0
 21 22  1  0
 21 23  1  0
  1 24  1  0
  1 25  1  0
  1 26  1  0
  2 27  1  0
  2 28  1  0
  3 29  1  0
  3 30  1  0
  4 31  1  0
  4 32  1  0
  6 33  1  0
  6 34  1  0
  7 35  1  0
  7 36  1  0
  7 37  1  0
 10 38  1  0
 12 39  1  0
M  CHG  4  15  -1  16  -1  22  -1  23  -1
M  END
>  <partial_charges>  (68) 
-0.0935999974608
-0.075300000608
-0.108199998736
0.238299995661
-0.788500010967
0.236300006509
-0.124799996614
0.300599992275
-0.175200000405
-0.0153000000864
-0.173199996352
-0.0153000000864
-0.175200000405
0.318500012159
-0.178599998355
-0.178599998355
0.695399999619
-0.224500000477
-0.224500000477
-0.224500000477
0.318500012159
-0.178599998355
-0.178599998355
0.0362000018358
0.0362000018358
0.0362000018358
0.0408000014722
0.0408000014722
0.054699998349
0.054699998349
0.0526000000536
0.0526000000536
0.0518000014126
0.0518000014126
0.0502999983728
0.0502999983728
0.0502999983728
0.182699993253
0.182699993253

>  <partial_bond_orders>  (68) 
1.0
1.0
1.0
1.0
1.0
1.0
1.0
2.0
1.0
2.0
1.0
2.0
1.0
1.0
1.0
1.0
1.0
1.0
1.0
1.0
1.0
1.0
1.0
1.0
1.0
1.0
1.0
1.0
1.0
1.0
1.0
1.0
1.0
1.0
1.0
1.0
1.0
1.0
1.0

>  <atom_types>  (68) 
c3
c3
c3
c3
nh
c3
c3
ca
ca
ca
ca
ca
ca
no
o
o
c3
f
f
f
no
o
o
hc
hc
hc
hc
hc
hc
hc
h1
h1
h1
h1
hc
hc
hc
ha
ha

>  <target>  (68) 
-3.51

>  <cal>  (68) 
-2.303

$$$$
mobley_2213823
     RDKit          3D

 20 19  0  0  0  0  0  0  0  0999 V2000
    0.3890   -0.9600   -0.3920 C   0  0  0  0  0  0  0  0  0  0  0  0
   -0.7740   -1.8070   -0.8890 C   0  0  0  0  0  0  0  0  0  0  0  0
   -0.3420   -3.0440   -1.7050 C   0  0  0  0  0  0  0  0  0  0  0  0
    0.5420   -3.9830   -0.8790 C   0  0  0  0  0  0  0  0  0  0  0  0
   -1.6010   -3.7660   -2.2290 C   0  0  0  0  0  0  0  0  0  0  0  0
   -1.3000   -5.0090   -3.0540 C   0  0  0  0  0  0  0  0  0  0  0  0
    0.0000    0.0000    0.0000 H   0  0  0  0  0  0  0  0  0  0  0  0
    0.0000    0.0000    0.0000 H   0  0  0  0  0  0  0  0  0  0  0  0
    0.0000    0.0000    0.0000 H   0  0  0  0  0  0  0  0  0  0  0  0
    0.0000    0.0000    0.0000 H   0  0  0  0  0  0  0  0  0  0  0  0
    0.0000    0.0000    0.0000 H   0  0  0  0  0  0  0  0  0  0  0  0
    0.0000    0.0000    0.0000 H   0  0  0  0  0  0  0  0  0  0  0  0
    0.0000    0.0000    0.0000 H   0  0  0  0  0  0  0  0  0  0  0  0
    0.0000    0.0000    0.0000 H   0  0  0  0  0  0  0  0  0  0  0  0
    0.0000    0.0000    0.0000 H   0  0  0  0  0  0  0  0  0  0  0  0
    0.0000    0.0000    0.0000 H   0  0  0  0  0  0  0  0  0  0  0  0
    0.0000    0.0000    0.0000 H   0  0  0  0  0  0  0  0  0  0  0  0
    0.0000    0.0000    0.0000 H   0  0  0  0  0  0  0  0  0  0  0  0
    0.0000    0.0000    0.0000 H   0  0  0  0  0  0  0  0  0  0  0  0
    0.0000    0.0000    0.0000 H   0  0  0  0  0  0  0  0  0  0  0  0
  1  2  1  0
  2  3  1  0
  3  4  1  0
  3  5  1  0
  5  6  1  0
  1  7  1  0
  1  8  1  0
  1  9  1  0
  2 10  1  0
  2 11  1  0
  3 12  1  0
  4 13  1  0
  4 14  1  0
  4 15  1  0
  5 16  1  0
  5 17  1  0
  6 18  1  0
  6 19  1  0
  6 20  1  0
M  END
>  <partial_charges>  (69) 
-0.0913999974728
-0.0772000029683
-0.0645999982953
-0.089699998498
-0.0772000029683
-0.0913999974728
0.0329000018537
0.0329000018537
0.0329000018537
0.0372000001371
0.0372000001371
0.0449000000954
0.0335000008345
0.0335000008345
0.0335000008345
0.0372000001371
0.0372000001371
0.0329000018537
0.0329000018537
0.0329000018537

>  <partial_bond_orders>  (69) 
1.0
1.0
1.0
1.0
1.0
1.0
1.0
1.0
1.0
1.0
1.0
1.0
1.0
1.0
1.0
1.0
1.0
1.0
1.0

>  <atom_types>  (69) 
c3
c3
c3
c3
c3
c3
hc
hc
hc
hc
hc
hc
hc
hc
hc
hc
hc
hc
hc
hc

>  <target>  (69) 
2.51

>  <cal>  (69) 
2.613

$$$$
mobley_2960202
     RDKit          3D

 22 24  0  0  0  0  0  0  0  0999 V2000
   -1.4370   -1.5820    0.2690 C   0  0  0  0  0  0  0  0  0  0  0  0
   -2.7270   -1.9050    0.6890 C   0  0  0  0  0  0  0  0  0  0  0  0
   -3.5800   -0.9100    1.1630 C   0  0  0  0  0  0  0  0  0  0  0  0
   -3.1490    0.4150    1.2200 C   0  0  0  0  0  0  0  0  0  0  0  0
   -1.8580    0.7400    0.8000 C   0  0  0  0  0  0  0  0  0  0  0  0
   -1.0040   -0.2570    0.3260 C   0  0  0  0  0  0  0  0  0  0  0  0
    0.6060    0.0870   -0.2050 Cl  0  0  0  0  0  0  0  0  0  0  0  0
   -1.3750    2.3980    0.8910 Cl  0  0  0  0  0  0  0  0  0  0  0  0
   -4.8560   -1.1830    1.5850 O   0  0  0  0  0  0  0  0  0  0  0  0
   -5.2390   -2.4980    1.5120 C   0  0  0  0  0  0  0  0  0  0  0  0
   -4.3860   -3.4940    1.0380 C   0  0  0  0  0  0  0  0  0  0  0  0
   -4.8170   -4.8180    0.9820 C   0  0  0  0  0  0  0  0  0  0  0  0
   -6.1070   -5.1430    1.4010 C   0  0  0  0  0  0  0  0  0  0  0  0
   -6.9620   -4.1460    1.8750 C   0  0  0  0  0  0  0  0  0  0  0  0
   -6.5290   -2.8210    1.9320 C   0  0  0  0  0  0  0  0  0  0  0  0
   -7.5650   -1.5540    2.5150 Cl  0  0  0  0  0  0  0  0  0  0  0  0
   -8.5740   -4.5510    2.3990 Cl  0  0  0  0  0  0  0  0  0  0  0  0
   -6.6460   -6.7990    1.3310 Cl  0  0  0  0  0  0  0  0  0  0  0  0
   -3.7250   -6.0330    0.3860 Cl  0  0  0  0  0  0  0  0  0  0  0  0
   -3.1090   -3.2200    0.6160 O   0  0  0  0  0  0  0  0  0  0  0  0
    0.0000    0.0000    0.0000 H   0  0  0  0  0  0  0  0  0  0  0  0
    0.0000    0.0000    0.0000 H   0  0  0  0  0  0  0  0  0  0  0  0
  1  6  2  0
  1  2  1  0
  2 20  1  0
  2  3  2  0
  3  4  1  0
  4  5  2  0
  5  6  1  0
  6  7  1  0
  5  8  1  0
  3  9  1  0
  9 10  1  0
 10 15  2  0
 10 11  1  0
 11 12  2  0
 12 13  1  0
 13 14  2  0
 14 15  1  0
 15 16  1  0
 14 17  1  0
 13 18  1  0
 12 19  1  0
 11 20  1  0
  1 21  1  0
  4 22  1  0
M  END
>  <partial_charges>  (70) 
-0.103200003505
0.0681999996305
0.0681999996305
-0.103100001812
0.0209999997169
0.0209999997169
-0.0500999987125
-0.0500999987125
-0.199399992824
0.0817999988794
0.0817999988794
0.0293000005186
0.0216000005603
0.0216000005603
0.0293000005186
-0.0185000002384
-0.0275999996811
-0.0275999996811
-0.0185000002384
-0.199399992824
0.17689999938
0.17689999938

>  <partial_bond_orders>  (70) 
2.0
1.0
1.0
2.0
1.0
2.0
1.0
1.0
1.0
1.0
1.0
2.0
1.0
2.0
1.0
2.0
1.0
1.0
1.0
1.0
1.0
1.0
1.0
1.0

>  <atom_types>  (70) 
ca
ca
ca
ca
ca
ca
cl
cl
os
ca
ca
ca
ca
ca
ca
cl
cl
cl
cl
os
ha
ha

>  <target>  (70) 
-3.71

>  <cal>  (70) 
-1.878

$$$$
mobley_2789243
     RDKit          3D

 11 11  0  0  0  0  0  0  0  0999 V2000
    1.6520   -0.6230    2.9000 C   0  0  0  0  0  0  0  0  0  0  0  0
    1.3880   -0.0680    1.6520 C   0  0  0  0  0  0  0  0  0  0  0  0
    0.2270   -0.4200    0.9730 C   0  0  0  0  0  0  0  0  0  0  0  0
   -0.6320   -1.3220    1.5800 C   0  0  0  0  0  0  0  0  0  0  0  0
   -0.4090   -1.8820    2.7910 N   0  0  0  0  0  0  0  0  0  0  0  0
    0.7300   -1.5160    3.4210 C   0  0  0  0  0  0  0  0  0  0  0  0
   -0.1320    0.2430   -0.5670 Cl  0  0  0  0  0  0  0  0  0  0  0  0
    0.0000    0.0000    0.0000 H   0  0  0  0  0  0  0  0  0  0  0  0
    0.0000    0.0000    0.0000 H   0  0  0  0  0  0  0  0  0  0  0  0
    0.0000    0.0000    0.0000 H   0  0  0  0  0  0  0  0  0  0  0  0
    0.0000    0.0000    0.0000 H   0  0  0  0  0  0  0  0  0  0  0  0
  1  6  2  0
  1  2  1  0
  2  3  2  0
  3  4  1  0
  4  5  2  0
  5  6  1  0
  3  7  1  0
  1  8  1  0
  2  9  1  0
  4 10  1  0
  6 11  1  0
M  END
>  <partial_charges>  (71) 
-0.235899999738
-0.0908999964595
-0.106299996376
0.404700011015
-0.655900001526
0.39359998703
-0.0733999982476
0.150499999523
0.150900006294
0.0364000014961
0.0263999998569

>  <partial_bond_orders>  (71) 
2.0
1.0
2.0
1.0
2.0
1.0
1.0
1.0
1.0
1.0
1.0

>  <atom_types>  (71) 
ca
ca
ca
ca
nb
ca
cl
ha
ha
h4
h4

>  <target>  (71) 
-4.01

>  <cal>  (71) 
-2.767

$$$$
mobley_1967551
     RDKit          3D

  7  6  0  0  0  0  0  0  0  0999 V2000
   -0.5890   -0.9200   -0.0340 C   0  0  0  0  0  0  0  0  0  0  0  0
   -1.5030   -0.9600    1.1510 C   0  0  0  0  0  0  0  0  0  0  0  0
   -1.4760   -1.8490    1.9960 O   0  0  0  0  0  0  0  0  0  0  0  0
    0.0000    0.0000    0.0000 H   0  0  0  0  0  0  0  0  0  0  0  0
    0.0000    0.0000    0.0000 H   0  0  0  0  0  0  0  0  0  0  0  0
    0.0000    0.0000    0.0000 H   0  0  0  0  0  0  0  0  0  0  0  0
    0.0000    0.0000    0.0000 H   0  0  0  0  0  0  0  0  0  0  0  0
  1  2  1  0
  2  3  2  0
  1  4  1  0
  1  5  1  0
  1  6  1  0
  2  7  1  0
M  END
>  <partial_charges>  (72) 
-0.221100002527
0.563199996948
-0.526799976826
0.0646999999881
0.0646999999881
0.0646999999881
-0.0093999998644

>  <partial_bond_orders>  (72) 
1.0
2.0
1.0
1.0
1.0
1.0

>  <atom_types>  (72) 
c3
c
o
hc
hc
hc
h4

>  <target>  (72) 
-3.5

>  <cal>  (72) 
-3.372

$$$$
mobley_186894
     RDKit          3D

 12 11  0  0  0  0  0  0  0  0999 V2000
    0.1580   -0.4970    0.9620 C   0  0  0  0  0  0  0  0  0  0  0  0
    1.6400   -0.5220    1.3060 C   0  0  0  0  0  0  0  0  0  0  0  0
    1.8810   -1.2100    2.6450 C   0  0  0  0  0  0  0  0  0  0  0  0
    3.6530   -1.2300    3.0390 S   0  0  0  0  0  0  0  0  0  0  0  0
    0.0000    0.0000    0.0000 H   0  0  0  0  0  0  0  0  0  0  0  0
    0.0000    0.0000    0.0000 H   0  0  0  0  0  0  0  0  0  0  0  0
    0.0000    0.0000    0.0000 H   0  0  0  0  0  0  0  0  0  0  0  0
    0.0000    0.0000    0.0000 H   0  0  0  0  0  0  0  0  0  0  0  0
    0.0000    0.0000    0.0000 H   0  0  0  0  0  0  0  0  0  0  0  0
    0.0000    0.0000    0.0000 H   0  0  0  0  0  0  0  0  0  0  0  0
    0.0000    0.0000    0.0000 H   0  0  0  0  0  0  0  0  0  0  0  0
    0.0000    0.0000    0.0000 H   0  0  0  0  0  0  0  0  0  0  0  0
  1  2  1  0
  2  3  1  0
  3  4  1  0
  1  5  1  0
  1  6  1  0
  1  7  1  0
  2  8  1  0
  2  9  1  0
  3 10  1  0
  3 11  1  0
  4 12  1  0
M  END
>  <partial_charges>  (73) 
-0.0938000008464
-0.0842999964952
0.00609999988228
-0.379200011492
0.0366000011563
0.0366000011563
0.0366000011563
0.0483000017703
0.0483000017703
0.0728000029922
0.0728000029922
0.199499994516

>  <partial_bond_orders>  (73) 
1.0
1.0
1.0
1.0
1.0
1.0
1.0
1.0
1.0
1.0
1.0

>  <atom_types>  (73) 
c3
c3
c3
sh
hc
hc
hc
hc
hc
h1
h1
hs

>  <target>  (73) 
-1.1

>  <cal>  (73) 
-0.182

$$$$
mobley_4759887
     RDKit          3D

 23 22  0  0  0  0  0  0  0  0999 V2000
    1.9980    1.0960    3.1530 C   0  0  0  0  0  0  0  0  0  0  0  0
    1.9580   -0.1520    2.2850 C   0  0  0  0  0  0  0  0  0  0  0  0
    0.9590   -0.0010    1.1380 C   0  0  0  0  0  0  0  0  0  0  0  0
    0.8790   -1.2330    0.2320 C   0  0  0  0  0  0  0  0  0  0  0  0
   -0.1060   -1.1410   -0.9370 C   0  0  0  0  0  0  0  0  0  0  0  0
   -0.1410   -2.4010   -1.8060 C   0  0  0  0  0  0  0  0  0  0  0  0
   -1.1410   -2.2480   -2.9530 C   0  0  0  0  0  0  0  0  0  0  0  0
   -1.1810   -4.0130   -4.1590 I   0  0  0  0  0  0  0  0  0  0  0  0
    0.0000    0.0000    0.0000 H   0  0  0  0  0  0  0  0  0  0  0  0
    0.0000    0.0000    0.0000 H   0  0  0  0  0  0  0  0  0  0  0  0
    0.0000    0.0000    0.0000 H   0  0  0  0  0  0  0  0  0  0  0  0
    0.0000    0.0000    0.0000 H   0  0  0  0  0  0  0  0  0  0  0  0
    0.0000    0.0000    0.0000 H   0  0  0  0  0  0  0  0  0  0  0  0
    0.0000    0.0000    0.0000 H   0  0  0  0  0  0  0  0  0  0  0  0
    0.0000    0.0000    0.0000 H   0  0  0  0  0  0  0  0  0  0  0  0
    0.0000    0.0000    0.0000 H   0  0  0  0  0  0  0  0  0  0  0  0
    0.0000    0.0000    0.0000 H   0  0  0  0  0  0  0  0  0  0  0  0
    0.0000    0.0000    0.0000 H   0  0  0  0  0  0  0  0  0  0  0  0
    0.0000    0.0000    0.0000 H   0  0  0  0  0  0  0  0  0  0  0  0
    0.0000    0.0000    0.0000 H   0  0  0  0  0  0  0  0  0  0  0  0
    0.0000    0.0000    0.0000 H   0  0  0  0  0  0  0  0  0  0  0  0
    0.0000    0.0000    0.0000 H   0  0  0  0  0  0  0  0  0  0  0  0
    0.0000    0.0000    0.0000 H   0  0  0  0  0  0  0  0  0  0  0  0
  1  2  1  0
  2  3  1  0
  3  4  1  0
  4  5  1  0
  5  6  1  0
  6  7  1  0
  7  8  1  0
  1  9  1  0
  1 10  1  0
  1 11  1  0
  2 12  1  0
  2 13  1  0
  3 14  1  0
  3 15  1  0
  4 16  1  0
  4 17  1  0
  5 18  1  0
  5 19  1  0
  6 20  1  0
  6 21  1  0
  7 22  1  0
  7 23  1  0
M  END
>  <partial_charges>  (74) 
-0.0921000018716
-0.0794999971986
-0.0785999968648
-0.0785000026226
-0.0800999999046
-0.0768000036478
0.0688999965787
-0.253699988127
0.0333000011742
0.0333000011742
0.0333000011742
0.0386000014842
0.0386000014842
0.0390000008047
0.0390000008047
0.0412999987602
0.0412999987602
0.0417999997735
0.0417999997735
0.0533000007272
0.0533000007272
0.0714000016451
0.0714000016451

>  <partial_bond_orders>  (74) 
1.0
1.0
1.0
1.0
1.0
1.0
1.0
1.0
1.0
1.0
1.0
1.0
1.0
1.0
1.0
1.0
1.0
1.0
1.0
1.0
1.0
1.0

>  <atom_types>  (74) 
c3
c3
c3
c3
c3
c3
c3
i
hc
hc
hc
hc
hc
hc
hc
hc
hc
hc
hc
hc
hc
h1
h1

>  <target>  (74) 
0.27

>  <cal>  (74) 
0.228

$$$$
mobley_1893937
     RDKit          3D

 20 19  0  0  0  0  0  0  0  0999 V2000
    0.6710   -0.6450    0.5770 C   0  0  0  0  0  0  0  0  0  0  0  0
    0.0260   -1.0250    1.9000 C   0  0  0  0  0  0  0  0  0  0  0  0
    0.9420   -1.9260    2.7290 C   0  0  0  0  0  0  0  0  0  0  0  0
    0.2900   -2.3070    4.0610 C   0  0  0  0  0  0  0  0  0  0  0  0
    1.2090   -3.2090    4.8900 C   0  0  0  0  0  0  0  0  0  0  0  0
    0.6050   -3.6180    6.2290 C   0  0  0  0  0  0  0  0  0  0  0  0
    1.6980   -4.6640    7.1640 Cl  0  0  0  0  0  0  0  0  0  0  0  0
    0.0000    0.0000    0.0000 H   0  0  0  0  0  0  0  0  0  0  0  0
    0.0000    0.0000    0.0000 H   0  0  0  0  0  0  0  0  0  0  0  0
    0.0000    0.0000    0.0000 H   0  0  0  0  0  0  0  0  0  0  0  0
    0.0000    0.0000    0.0000 H   0  0  0  0  0  0  0  0  0  0  0  0
    0.0000    0.0000    0.0000 H   0  0  0  0  0  0  0  0  0  0  0  0
    0.0000    0.0000    0.0000 H   0  0  0  0  0  0  0  0  0  0  0  0
    0.0000    0.0000    0.0000 H   0  0  0  0  0  0  0  0  0  0  0  0
    0.0000    0.0000    0.0000 H   0  0  0  0  0  0  0  0  0  0  0  0
    0.0000    0.0000    0.0000 H   0  0  0  0  0  0  0  0  0  0  0  0
    0.0000    0.0000    0.0000 H   0  0  0  0  0  0  0  0  0  0  0  0
    0.0000    0.0000    0.0000 H   0  0  0  0  0  0  0  0  0  0  0  0
    0.0000    0.0000    0.0000 H   0  0  0  0  0  0  0  0  0  0  0  0
    0.0000    0.0000    0.0000 H   0  0  0  0  0  0  0  0  0  0  0  0
  1  2  1  0
  2  3  1  0
  3  4  1  0
  4  5  1  0
  5  6  1  0
  6  7  1  0
  1  8  1  0
  1  9  1  0
  1 10  1  0
  2 11  1  0
  2 12  1  0
  3 13  1  0
  3 14  1  0
  4 15  1  0
  4 16  1  0
  5 17  1  0
  5 18  1  0
  6 19  1  0
  6 20  1  0
M  END
>  <partial_charges>  (75) 
-0.0922999978065
-0.0798999965191
-0.0790999978781
-0.0788000002503
-0.0922000035644
0.0397000014782
-0.201299995184
0.0337999984622
0.0337999984622
0.0337999984622
0.0384999997914
0.0384999997914
0.0412999987602
0.0412999987602
0.0417999997735
0.0417999997735
0.056400001049
0.056400001049
0.063299998641
0.063299998641

>  <partial_bond_orders>  (75) 
1.0
1.0
1.0
1.0
1.0
1.0
1.0
1.0
1.0
1.0
1.0
1.0
1.0
1.0
1.0
1.0
1.0
1.0
1.0

>  <atom_types>  (75) 
c3
c3
c3
c3
c3
c3
cl
hc
hc
hc
hc
hc
hc
hc
hc
hc
hc
hc
h1
h1

>  <target>  (75) 
0.0

>  <cal>  (75) 
1.261

$$$$
mobley_7009711
     RDKit          3D

 19 19  0  0  0  0  0  0  0  0999 V2000
    1.9300   -1.0130   -1.6030 C   0  0  0  0  0  0  0  0  0  0  0  0
    1.8850   -1.0360   -0.1120 C   0  0  0  0  0  0  0  0  0  0  0  0
    2.9210   -1.6310    0.6080 C   0  0  0  0  0  0  0  0  0  0  0  0
    2.8780   -1.6520    2.0020 C   0  0  0  0  0  0  0  0  0  0  0  0
    1.8000   -1.0790    2.6760 C   0  0  0  0  0  0  0  0  0  0  0  0
    0.7640   -0.4840    1.9550 C   0  0  0  0  0  0  0  0  0  0  0  0
    0.8070   -0.4630    0.5610 C   0  0  0  0  0  0  0  0  0  0  0  0
   -0.2880    0.0760    2.6130 O   0  0  0  0  0  0  0  0  0  0  0  0
    3.9860   -2.2870    2.7720 C   0  0  0  0  0  0  0  0  0  0  0  0
    0.0000    0.0000    0.0000 H   0  0  0  0  0  0  0  0  0  0  0  0
    0.0000    0.0000    0.0000 H   0  0  0  0  0  0  0  0  0  0  0  0
    0.0000    0.0000    0.0000 H   0  0  0  0  0  0  0  0  0  0  0  0
    0.0000    0.0000    0.0000 H   0  0  0  0  0  0  0  0  0  0  0  0
    0.0000    0.0000    0.0000 H   0  0  0  0  0  0  0  0  0  0  0  0
    0.0000    0.0000    0.0000 H   0  0  0  0  0  0  0  0  0  0  0  0
    0.0000    0.0000    0.0000 H   0  0  0  0  0  0  0  0  0  0  0  0
    0.0000    0.0000    0.0000 H   0  0  0  0  0  0  0  0  0  0  0  0
    0.0000    0.0000    0.0000 H   0  0  0  0  0  0  0  0  0  0  0  0
    0.0000    0.0000    0.0000 H   0  0  0  0  0  0  0  0  0  0  0  0
  1  2  1  0
  2  7  2  0
  2  3  1  0
  3  4  2  0
  4  5  1  0
  5  6  2  0
  6  7  1  0
  6  8  1  0
  4  9  1  0
  1 10  1  0
  1 11  1  0
  1 12  1  0
  3 13  1  0
  5 14  1  0
  7 15  1  0
  8 16  1  0
  9 17  1  0
  9 18  1  0
  9 19  1  0
M  END
>  <partial_charges>  (76) 
-0.0562999993563
-0.0377000011504
-0.166999995708
-0.0377000011504
-0.191799998283
0.130500003695
-0.191799998283
-0.500699996948
-0.0562999993563
0.0460000000894
0.0460000000894
0.0460000000894
0.133100003004
0.140699997544
0.140699997544
0.418399989605
0.0460000000894
0.0460000000894
0.0460000000894

>  <partial_bond_orders>  (76) 
1.0
2.0
1.0
2.0
1.0
2.0
1.0
1.0
1.0
1.0
1.0
1.0
1.0
1.0
1.0
1.0
1.0
1.0
1.0

>  <atom_types>  (76) 
c3
ca
ca
ca
ca
ca
ca
oh
c3
hc
hc
hc
ha
ha
ha
ho
hc
hc
hc

>  <target>  (76) 
-6.27

>  <cal>  (76) 
-5.444

$$$$
mobley_3452749
     RDKit          3D

 21 21  0  0  0  0  0  0  0  0999 V2000
    1.9540   -1.0290   -1.6050 C   0  0  0  0  0  0  0  0  0  0  0  0
    1.8850   -1.0360   -0.1120 C   0  0  0  0  0  0  0  0  0  0  0  0
    2.9210   -1.6310    0.6080 C   0  0  0  0  0  0  0  0  0  0  0  0
    2.8780   -1.6520    2.0020 C   0  0  0  0  0  0  0  0  0  0  0  0
    1.8000   -1.0790    2.6760 C   0  0  0  0  0  0  0  0  0  0  0  0
    0.7640   -0.4840    1.9550 C   0  0  0  0  0  0  0  0  0  0  0  0
    0.8070   -0.4630    0.5610 C   0  0  0  0  0  0  0  0  0  0  0  0
   -0.3050    0.1730   -0.2110 C   0  0  0  0  0  0  0  0  0  0  0  0
   -0.3800    0.1230    2.7000 C   0  0  0  0  0  0  0  0  0  0  0  0
    0.0000    0.0000    0.0000 H   0  0  0  0  0  0  0  0  0  0  0  0
    0.0000    0.0000    0.0000 H   0  0  0  0  0  0  0  0  0  0  0  0
    0.0000    0.0000    0.0000 H   0  0  0  0  0  0  0  0  0  0  0  0
    0.0000    0.0000    0.0000 H   0  0  0  0  0  0  0  0  0  0  0  0
    0.0000    0.0000    0.0000 H   0  0  0  0  0  0  0  0  0  0  0  0
    0.0000    0.0000    0.0000 H   0  0  0  0  0  0  0  0  0  0  0  0
    0.0000    0.0000    0.0000 H   0  0  0  0  0  0  0  0  0  0  0  0
    0.0000    0.0000    0.0000 H   0  0  0  0  0  0  0  0  0  0  0  0
    0.0000    0.0000    0.0000 H   0  0  0  0  0  0  0  0  0  0  0  0
    0.0000    0.0000    0.0000 H   0  0  0  0  0  0  0  0  0  0  0  0
    0.0000    0.0000    0.0000 H   0  0  0  0  0  0  0  0  0  0  0  0
    0.0000    0.0000    0.0000 H   0  0  0  0  0  0  0  0  0  0  0  0
  1  2  1  0
  2  7  2  0
  2  3  1  0
  3  4  2  0
  4  5  1  0
  5  6  2  0
  6  7  1  0
  7  8  1  0
  6  9  1  0
  1 10  1  0
  1 11  1  0
  1 12  1  0
  3 13  1  0
  4 14  1  0
  5 15  1  0
  8 16  1  0
  8 17  1  0
  8 18  1  0
  9 19  1  0
  9 20  1  0
  9 21  1  0
M  END
>  <partial_charges>  (77) 
-0.0542999990284
-0.0734999999404
-0.133200004697
-0.127700001001
-0.133200004697
-0.0734999999404
-0.0715000033379
-0.0544999986887
-0.0542999990284
0.0430000014603
0.0430000014603
0.0430000014603
0.128999993205
0.129600003362
0.128999993205
0.0434000007808
0.0434000007808
0.0434000007808
0.0430000014603
0.0430000014603
0.0430000014603

>  <partial_bond_orders>  (77) 
1.0
2.0
1.0
2.0
1.0
2.0
1.0
1.0
1.0
1.0
1.0
1.0
1.0
1.0
1.0
1.0
1.0
1.0
1.0
1.0
1.0

>  <atom_types>  (77) 
c3
ca
ca
ca
ca
ca
ca
c3
c3
hc
hc
hc
ha
ha
ha
hc
hc
hc
hc
hc
hc

>  <target>  (77) 
-1.21

>  <cal>  (77) 
-0.883

$$$$
mobley_3867265
     RDKit          3D

 10  9  0  0  0  0  0  0  0  0999 V2000
   -0.7030   -0.4110    0.7290 C   0  0  0  0  0  0  0  0  0  0  0  0
   -0.0570   -0.4470    2.0870 C   0  0  0  0  0  0  0  0  0  0  0  0
    0.1010   -1.5020    2.6990 O   0  0  0  0  0  0  0  0  0  0  0  0
    0.3850    0.8720    2.6620 C   0  0  0  0  0  0  0  0  0  0  0  0
    0.0000    0.0000    0.0000 H   0  0  0  0  0  0  0  0  0  0  0  0
    0.0000    0.0000    0.0000 H   0  0  0  0  0  0  0  0  0  0  0  0
    0.0000    0.0000    0.0000 H   0  0  0  0  0  0  0  0  0  0  0  0
    0.0000    0.0000    0.0000 H   0  0  0  0  0  0  0  0  0  0  0  0
    0.0000    0.0000    0.0000 H   0  0  0  0  0  0  0  0  0  0  0  0
    0.0000    0.0000    0.0000 H   0  0  0  0  0  0  0  0  0  0  0  0
  1  2  1  0
  2  3  2  0
  2  4  1  0
  1  5  1  0
  1  6  1  0
  1  7  1  0
  4  8  1  0
  4  9  1  0
  4 10  1  0
M  END
>  <partial_charges>  (78) 
-0.202800005674
0.563600003719
-0.535799980164
-0.202800005674
0.0630000010133
0.0630000010133
0.0630000010133
0.0630000010133
0.0630000010133
0.0630000010133

>  <partial_bond_orders>  (78) 
1.0
2.0
1.0
1.0
1.0
1.0
1.0
1.0
1.0

>  <atom_types>  (78) 
c3
c
o
c3
hc
hc
hc
hc
hc
hc

>  <target>  (78) 
-3.8

>  <cal>  (78) 
-3.506

$$$$
mobley_628086
     RDKit          3D

 12 11  0  0  1  0  0  0  0  0999 V2000
    0.3310    1.3650   -0.0660 C   0  0  0  0  0  0  0  0  0  0  0  0
   -0.0250   -0.0560   -0.4690 C   0  0  0  0  0  0  0  0  0  0  0  0
    1.1960   -0.8540   -0.8760 C   0  0  0  0  0  0  0  0  0  0  0  0
    2.0800   -0.9310    0.1420 F   0  0  0  0  0  0  0  0  0  0  0  0
    0.8710   -2.1130   -1.2380 F   0  0  0  0  0  0  0  0  0  0  0  0
    1.8290   -0.2740   -1.9200 F   0  0  0  0  0  0  0  0  0  0  0  0
   -0.6510   -0.6920    0.6410 O   0  0  0  0  0  0  0  0  0  0  0  0
    0.0000    0.0000    0.0000 H   0  0  0  0  0  0  0  0  0  0  0  0
    0.0000    0.0000    0.0000 H   0  0  0  0  0  0  0  0  0  0  0  0
    0.0000    0.0000    0.0000 H   0  0  0  0  0  0  0  0  0  0  0  0
    0.0000    0.0000    0.0000 H   0  0  0  0  0  0  0  0  0  0  0  0
    0.0000    0.0000    0.0000 H   0  0  0  0  0  0  0  0  0  0  0  0
  1  2  1  0
  2  3  1  0
  3  4  1  0
  3  5  1  0
  3  6  1  0
  2  7  1  0
  1  8  1  0
  1  9  1  0
  1 10  1  0
  2 11  1  0
  7 12  1  0
M  END
>  <partial_charges>  (79) 
-0.101199999452
0.123300001025
0.0689999982715
0.583100020885
-0.237299993634
-0.237299993634
-0.237299993634
-0.57380002737
0.0648000016809
0.0648000016809
0.0648000016809
0.416900008917

>  <partial_bond_orders>  (79) 
1.0
1.0
1.0
1.0
1.0
1.0
1.0
1.0
1.0
1.0
1.0

>  <atom_types>  (79) 
c3
c3
h1
c3
f
f
f
oh
hc
hc
hc
ho

>  <target>  (79) 
-4.16

>  <cal>  (79) 
-3.518

$$$$
mobley_1708457
     RDKit          3D

 11 10  0  0  0  0  0  0  0  0999 V2000
    1.0620    0.2380    0.0930 C   0  0  0  0  0  0  0  0  0  0  0  0
    1.2750    1.2690    1.5230 S   0  0  0  0  0  0  0  0  0  0  0  0
    0.9470    0.4790    2.6930 O   0  0  0  0  0  0  0  0  0  0  0  0
    0.6110    2.5320    1.2630 O   0  0  0  0  0  0  0  0  0  0  0  0
    3.0250    1.5690    1.5420 C   0  0  0  0  0  0  0  0  0  0  0  0
    0.0000    0.0000    0.0000 H   0  0  0  0  0  0  0  0  0  0  0  0
    0.0000    0.0000    0.0000 H   0  0  0  0  0  0  0  0  0  0  0  0
    0.0000    0.0000    0.0000 H   0  0  0  0  0  0  0  0  0  0  0  0
    0.0000    0.0000    0.0000 H   0  0  0  0  0  0  0  0  0  0  0  0
    0.0000    0.0000    0.0000 H   0  0  0  0  0  0  0  0  0  0  0  0
    0.0000    0.0000    0.0000 H   0  0  0  0  0  0  0  0  0  0  0  0
  1  2  1  0
  2  3  2  0
  2  4  2  0
  2  5  1  0
  1  6  1  0
  1  7  1  0
  1  8  1  0
  5  9  1  0
  5 10  1  0
  5 11  1  0
M  END
>  <partial_charges>  (80) 
-0.368099987507
1.34839999676
-0.654699981213
-0.654699981213
-0.368099987507
0.116200000048
0.116200000048
0.116200000048
0.116200000048
0.116200000048
0.116200000048

>  <partial_bond_orders>  (80) 
1.0
2.0
2.0
1.0
1.0
1.0
1.0
1.0
1.0
1.0

>  <atom_types>  (80) 
c3
s6
o
o
c3
h1
h1
h1
h1
h1
h1

>  <target>  (80) 
-10.08

>  <cal>  (80) 
-10.559

$$$$
mobley_8578590
     RDKit          3D

 10  9  0  0  0  0  0  0  0  0999 V2000
    0.8450   -0.5680    0.4100 C   0  0  0  0  0  0  0  0  0  0  0  0
    0.8620   -0.5490    2.2960 S   0  0  0  0  0  0  0  0  0  0  0  0
    2.1870   -1.1420    2.6710 O   0  0  0  0  0  0  0  0  0  0  0  0
    1.0230    1.2500    2.4100 C   0  0  0  0  0  0  0  0  0  0  0  0
    0.0000    0.0000    0.0000 H   0  0  0  0  0  0  0  0  0  0  0  0
    0.0000    0.0000    0.0000 H   0  0  0  0  0  0  0  0  0  0  0  0
    0.0000    0.0000    0.0000 H   0  0  0  0  0  0  0  0  0  0  0  0
    0.0000    0.0000    0.0000 H   0  0  0  0  0  0  0  0  0  0  0  0
    0.0000    0.0000    0.0000 H   0  0  0  0  0  0  0  0  0  0  0  0
    0.0000    0.0000    0.0000 H   0  0  0  0  0  0  0  0  0  0  0  0
  1  2  1  0
  2  3  2  0
  2  4  1  0
  1  5  1  0
  1  6  1  0
  1  7  1  0
  4  8  1  0
  4  9  1  0
  4 10  1  0
M  END
>  <partial_charges>  (81) 
-0.130500003695
0.270999997854
-0.507099986076
-0.130500003695
0.0829000025988
0.0829000025988
0.0829000025988
0.0829000025988
0.0829000025988
0.0829000025988

>  <partial_bond_orders>  (81) 
1.0
2.0
1.0
1.0
1.0
1.0
1.0
1.0
1.0

>  <atom_types>  (81) 
c3
s4
o
c3
h1
h1
h1
h1
h1
h1

>  <target>  (81) 
-9.280000000000001

>  <cal>  (81) 
-8.243

$$$$
mobley_5692472
     RDKit          3D

 10  9  0  0  0  0  0  0  0  0999 V2000
    1.0280    0.1350    0.3510 C   0  0  0  0  0  0  0  0  0  0  0  0
    1.0300    0.2820    1.8000 N   0  0  0  0  0  0  0  0  0  0  0  0
    2.3860    0.4590    2.3030 C   0  0  0  0  0  0  0  0  0  0  0  0
    0.0000    0.0000    0.0000 H   0  0  0  0  0  0  0  0  0  0  0  0
    0.0000    0.0000    0.0000 H   0  0  0  0  0  0  0  0  0  0  0  0
    0.0000    0.0000    0.0000 H   0  0  0  0  0  0  0  0  0  0  0  0
    0.0000    0.0000    0.0000 H   0  0  0  0  0  0  0  0  0  0  0  0
    0.0000    0.0000    0.0000 H   0  0  0  0  0  0  0  0  0  0  0  0
    0.0000    0.0000    0.0000 H   0  0  0  0  0  0  0  0  0  0  0  0
    0.0000    0.0000    0.0000 H   0  0  0  0  0  0  0  0  0  0  0  0
  1  2  1  0
  2  3  1  0
  1  4  1  0
  1  5  1  0
  1  6  1  0
  2  7  1  0
  3  8  1  0
  3  9  1  0
  3 10  1  0
M  END
>  <partial_charges>  (82) 
0.147499993443
-0.822499990463
0.147499993443
0.0284000001848
0.0284000001848
0.0284000001848
0.357100009918
0.0284000001848
0.0284000001848
0.0284000001848

>  <partial_bond_orders>  (82) 
1.0
1.0
1.0
1.0
1.0
1.0
1.0
1.0
1.0

>  <atom_types>  (82) 
c3
n3
c3
h1
h1
h1
hn
h1
h1
h1

>  <target>  (82) 
-4.29

>  <cal>  (82) 
-2.991

$$$$
mobley_4780078
     RDKit          3D

 19 19  0  0  0  0  0  0  0  0999 V2000
    1.9320   -1.0140   -1.6030 C   0  0  0  0  0  0  0  0  0  0  0  0
    1.8850   -1.0360   -0.1120 C   0  0  0  0  0  0  0  0  0  0  0  0
    2.9210   -1.6310    0.6080 C   0  0  0  0  0  0  0  0  0  0  0  0
    2.8780   -1.6520    2.0020 C   0  0  0  0  0  0  0  0  0  0  0  0
    1.8000   -1.0790    2.6760 C   0  0  0  0  0  0  0  0  0  0  0  0
    0.7640   -0.4840    1.9550 C   0  0  0  0  0  0  0  0  0  0  0  0
    0.8070   -0.4630    0.5610 C   0  0  0  0  0  0  0  0  0  0  0  0
   -0.3990    0.1340    2.6600 C   0  0  0  0  0  0  0  0  0  0  0  0
    1.7730   -1.1100    4.0370 O   0  0  0  0  0  0  0  0  0  0  0  0
    0.0000    0.0000    0.0000 H   0  0  0  0  0  0  0  0  0  0  0  0
    0.0000    0.0000    0.0000 H   0  0  0  0  0  0  0  0  0  0  0  0
    0.0000    0.0000    0.0000 H   0  0  0  0  0  0  0  0  0  0  0  0
    0.0000    0.0000    0.0000 H   0  0  0  0  0  0  0  0  0  0  0  0
    0.0000    0.0000    0.0000 H   0  0  0  0  0  0  0  0  0  0  0  0
    0.0000    0.0000    0.0000 H   0  0  0  0  0  0  0  0  0  0  0  0
    0.0000    0.0000    0.0000 H   0  0  0  0  0  0  0  0  0  0  0  0
    0.0000    0.0000    0.0000 H   0  0  0  0  0  0  0  0  0  0  0  0
    0.0000    0.0000    0.0000 H   0  0  0  0  0  0  0  0  0  0  0  0
    0.0000    0.0000    0.0000 H   0  0  0  0  0  0  0  0  0  0  0  0
  1  2  1  0
  2  7  2  0
  2  3  1  0
  3  4  2  0
  4  5  1  0
  5  6  2  0
  6  7  1  0
  6  8  1  0
  5  9  1  0
  1 10  1  0
  1 11  1  0
  1 12  1  0
  3 13  1  0
  4 14  1  0
  7 15  1  0
  8 16  1  0
  8 17  1  0
  8 18  1  0
  9 19  1  0
M  END
>  <partial_charges>  (83) 
-0.0480000004172
-0.108599998057
-0.0973000004888
-0.207300007343
0.11819999665
-0.0952999964356
-0.101400002837
-0.0445999987423
-0.498400002718
0.042199999094
0.042199999094
0.042199999094
0.132100000978
0.131400004029
0.133900001645
0.0469999983907
0.0469999983907
0.0469999983907
0.417800009251

>  <partial_bond_orders>  (83) 
1.0
2.0
1.0
2.0
1.0
2.0
1.0
1.0
1.0
1.0
1.0
1.0
1.0
1.0
1.0
1.0
1.0
1.0
1.0

>  <atom_types>  (83) 
c3
ca
ca
ca
ca
ca
ca
c3
oh
hc
hc
hc
ha
ha
ha
hc
hc
hc
ho

>  <target>  (83) 
-6.01

>  <cal>  (83) 
-4.98

$$$$
mobley_667278
     RDKit          3D

 22 23  0  0  0  0  0  0  0  0999 V2000
    1.8850   -1.0360   -0.1120 C   0  0  0  0  0  0  0  0  0  0  0  0
    2.9210   -1.6310    0.6080 C   0  0  0  0  0  0  0  0  0  0  0  0
    2.8780   -1.6520    2.0020 C   0  0  0  0  0  0  0  0  0  0  0  0
    1.8000   -1.0790    2.6760 C   0  0  0  0  0  0  0  0  0  0  0  0
    0.7640   -0.4840    1.9550 C   0  0  0  0  0  0  0  0  0  0  0  0
    0.8070   -0.4630    0.5610 C   0  0  0  0  0  0  0  0  0  0  0  0
   -0.2440    0.1420   -0.2380 C   0  0  0  0  0  0  0  0  0  0  0  0
   -0.1170    1.4930   -0.5610 C   0  0  0  0  0  0  0  0  0  0  0  0
   -1.0980    2.1220   -1.3270 C   0  0  0  0  0  0  0  0  0  0  0  0
   -2.2070    1.4000   -1.7700 C   0  0  0  0  0  0  0  0  0  0  0  0
   -2.3330    0.0490   -1.4470 C   0  0  0  0  0  0  0  0  0  0  0  0
   -1.3520   -0.5800   -0.6810 C   0  0  0  0  0  0  0  0  0  0  0  0
   -1.4920   -2.2650   -0.2630 Cl  0  0  0  0  0  0  0  0  0  0  0  0
   -3.7170   -0.8550   -1.9990 Cl  0  0  0  0  0  0  0  0  0  0  0  0
   -3.4230    2.1990   -2.7250 Cl  0  0  0  0  0  0  0  0  0  0  0  0
   -0.8690    3.7990   -1.6880 Cl  0  0  0  0  0  0  0  0  0  0  0  0
   -0.5910    0.2370    2.7780 Cl  0  0  0  0  0  0  0  0  0  0  0  0
    1.7570   -1.1110    4.4150 Cl  0  0  0  0  0  0  0  0  0  0  0  0
    4.2000   -2.4080    2.8250 Cl  0  0  0  0  0  0  0  0  0  0  0  0
    0.0000    0.0000    0.0000 H   0  0  0  0  0  0  0  0  0  0  0  0
    0.0000    0.0000    0.0000 H   0  0  0  0  0  0  0  0  0  0  0  0
    0.0000    0.0000    0.0000 H   0  0  0  0  0  0  0  0  0  0  0  0
  1  6  2  0
  1  2  1  0
  2  3  2  0
  3  4  1  0
  4  5  2  0
  5  6  1  0
  6  7  1  0
  7 12  1  0
  7  8  2  0
  8  9  1  0
  9 10  2  0
 10 11  1  0
 11 12  2  0
 12 13  1  0
 11 14  1  0
 10 15  1  0
  9 16  1  0
  5 17  1  0
  4 18  1  0
  3 19  1  0
  1 20  1  0
  2 21  1  0
  8 22  1  0
M  END
>  <partial_charges>  (84) 
-0.0914999991655
-0.120700001717
0.0308999996632
0.0131999999285
0.0443000011146
-0.0397000014782
-0.0259000007063
-0.0923999994993
0.0186000000685
0.0277999993414
0.0187999997288
0.0401000007987
-0.0412999987602
-0.0351999998093
-0.0331999994814
-0.0511000007391
-0.0467000007629
-0.0394000001252
-0.0555000007153
0.154799997807
0.158199995756
0.165999993682

>  <partial_bond_orders>  (84) 
2.0
1.0
2.0
1.0
2.0
1.0
1.0
2.0
1.0
2.0
1.0
2.0
1.0
1.0
1.0
1.0
1.0
1.0
1.0
1.0
1.0
1.0
1.0

>  <atom_types>  (84) 
ca
ca
ca
ca
ca
cp
cp
ca
ca
ca
ca
ca
cl
cl
cl
cl
cl
cl
cl
ha
ha
ha

>  <target>  (84) 
-4.4

>  <cal>  (84) 
-0.805

$$$$
mobley_4715906
     RDKit          3D

 24 24  0  0  1  0  0  0  0  0999 V2000
    3.4430   -1.0420    2.0540 C   0  0  0  0  0  0  0  0  0  0  0  0
    2.0170   -1.4140    2.4780 C   0  0  0  0  0  0  0  0  0  0  0  0
    1.0620   -1.3800    1.2710 C   0  0  0  0  0  0  0  0  0  0  0  0
    0.7400    0.0390    0.8070 C   0  0  0  0  0  0  0  0  0  0  0  0
    0.2010    0.8940    1.9490 C   0  0  0  0  0  0  0  0  0  0  0  0
    1.1340    0.8900    3.1580 C   0  0  0  0  0  0  0  0  0  0  0  0
    1.4550   -0.5380    3.6250 C   0  0  0  0  0  0  0  0  0  0  0  0
    2.3660   -0.5070    4.8530 C   0  0  0  0  0  0  0  0  0  0  0  0
    0.0000    0.0000    0.0000 H   0  0  0  0  0  0  0  0  0  0  0  0
    0.0000    0.0000    0.0000 H   0  0  0  0  0  0  0  0  0  0  0  0
    0.0000    0.0000    0.0000 H   0  0  0  0  0  0  0  0  0  0  0  0
    0.0000    0.0000    0.0000 H   0  0  0  0  0  0  0  0  0  0  0  0
    0.0000    0.0000    0.0000 H   0  0  0  0  0  0  0  0  0  0  0  0
    0.0000    0.0000    0.0000 H   0  0  0  0  0  0  0  0  0  0  0  0
    0.0000    0.0000    0.0000 H   0  0  0  0  0  0  0  0  0  0  0  0
    0.0000    0.0000    0.0000 H   0  0  0  0  0  0  0  0  0  0  0  0
    0.0000    0.0000    0.0000 H   0  0  0  0  0  0  0  0  0  0  0  0
    0.0000    0.0000    0.0000 H   0  0  0  0  0  0  0  0  0  0  0  0
    0.0000    0.0000    0.0000 H   0  0  0  0  0  0  0  0  0  0  0  0
    0.0000    0.0000    0.0000 H   0  0  0  0  0  0  0  0  0  0  0  0
    0.0000    0.0000    0.0000 H   0  0  0  0  0  0  0  0  0  0  0  0
    0.0000    0.0000    0.0000 H   0  0  0  0  0  0  0  0  0  0  0  0
    0.0000    0.0000    0.0000 H   0  0  0  0  0  0  0  0  0  0  0  0
    0.0000    0.0000    0.0000 H   0  0  0  0  0  0  0  0  0  0  0  0
  1  2  1  0
  2  7  1  0
  2  3  1  0
  3  4  1  0
  4  5  1  0
  5  6  1  0
  6  7  1  0
  7  8  1  0
  1  9  1  0
  1 10  1  0
  1 11  1  0
  2 12  1  0
  3 13  1  0
  3 14  1  0
  4 15  1  0
  4 16  1  0
  5 17  1  0
  5 18  1  0
  6 19  1  0
  6 20  1  0
  7 21  1  0
  8 22  1  0
  8 23  1  0
  8 24  1  0
M  END
>  <partial_charges>  (85) 
-0.0882999971509
-0.0581000000238
0.0421000011265
-0.0732000023127
-0.075300000608
-0.075300000608
-0.0732000023127
-0.0581000000238
0.0421000011265
-0.0882999971509
0.0335000008345
0.0335000008345
0.0335000008345
0.0381999984384
0.0381999984384
0.0379000008106
0.0379000008106
0.0379000008106
0.0379000008106
0.0381999984384
0.0381999984384
0.0335000008345
0.0335000008345
0.0335000008345

>  <partial_bond_orders>  (85) 
1.0
1.0
1.0
1.0
1.0
1.0
1.0
1.0
1.0
1.0
1.0
1.0
1.0
1.0
1.0
1.0
1.0
1.0
1.0
1.0
1.0
1.0
1.0
1.0

>  <atom_types>  (85) 
c3
c3
hc
c3
c3
c3
c3
c3
hc
c3
hc
hc
hc
hc
hc
hc
hc
hc
hc
hc
hc
hc
hc
hc

>  <target>  (85) 
1.58

>  <cal>  (85) 
1.685

$$$$
mobley_6854178
     RDKit          3D

 14 13  0  0  0  0  0  0  0  0999 V2000
    1.0770    0.0500    0.1960 C   0  0  0  0  0  0  0  0  0  0  0  0
    1.3530    0.9190    1.4130 C   0  0  0  0  0  0  0  0  0  0  0  0
    2.8430    1.0380    1.6980 C   0  0  0  0  0  0  0  0  0  0  0  0
    0.8120    2.2180    1.1940 O   0  0  0  0  0  0  0  0  0  0  0  0
    0.3770    2.8690    2.3070 C   0  0  0  0  0  0  0  0  0  0  0  0
    0.4010    2.4640    3.4590 O   0  0  0  0  0  0  0  0  0  0  0  0
    0.0000    0.0000    0.0000 H   0  0  0  0  0  0  0  0  0  0  0  0
    0.0000    0.0000    0.0000 H   0  0  0  0  0  0  0  0  0  0  0  0
    0.0000    0.0000    0.0000 H   0  0  0  0  0  0  0  0  0  0  0  0
    0.0000    0.0000    0.0000 H   0  0  0  0  0  0  0  0  0  0  0  0
    0.0000    0.0000    0.0000 H   0  0  0  0  0  0  0  0  0  0  0  0
    0.0000    0.0000    0.0000 H   0  0  0  0  0  0  0  0  0  0  0  0
    0.0000    0.0000    0.0000 H   0  0  0  0  0  0  0  0  0  0  0  0
    0.0000    0.0000    0.0000 H   0  0  0  0  0  0  0  0  0  0  0  0
  1  2  1  0
  2  3  1  0
  2  4  1  0
  4  5  1  0
  5  6  2  0
  1  7  1  0
  1  8  1  0
  1  9  1  0
  2 10  1  0
  3 11  1  0
  3 12  1  0
  3 13  1  0
  5 14  1  0
M  END
>  <partial_charges>  (86) 
-0.106100000441
0.135800004005
-0.106100000441
-0.443899989128
0.631600022316
-0.541100025177
0.0472999997437
0.0472999997437
0.0472999997437
0.0675999969244
0.0472999997437
0.0472999997437
0.0472999997437
0.0784000009298

>  <partial_bond_orders>  (86) 
1.0
1.0
1.0
1.0
2.0
1.0
1.0
1.0
1.0
1.0
1.0
1.0
1.0

>  <atom_types>  (86) 
c3
c3
c3
os
c
o
hc
hc
hc
h1
hc
hc
hc
h5

>  <target>  (86) 
-2.02

>  <cal>  (86) 
-3.591

$$$$
mobley_349850
     RDKit          3D

 20 20  0  0  0  0  0  0  0  0999 V2000
    1.9300   -1.0140   -1.6030 C   0  0  0  0  0  0  0  0  0  0  0  0
    1.8850   -1.0360   -0.1120 C   0  0  0  0  0  0  0  0  0  0  0  0
    2.9210   -1.6310    0.6080 C   0  0  0  0  0  0  0  0  0  0  0  0
    2.8780   -1.6520    2.0020 C   0  0  0  0  0  0  0  0  0  0  0  0
    1.8000   -1.0790    2.6760 C   0  0  0  0  0  0  0  0  0  0  0  0
    0.7640   -0.4840    1.9550 C   0  0  0  0  0  0  0  0  0  0  0  0
    0.8070   -0.4630    0.5610 C   0  0  0  0  0  0  0  0  0  0  0  0
    1.7550   -1.1010    4.1290 C   0  0  0  0  0  0  0  0  0  0  0  0
    2.2560   -1.9770    4.8380 O   0  0  0  0  0  0  0  0  0  0  0  0
    1.0520    0.0320    4.8190 C   0  0  0  0  0  0  0  0  0  0  0  0
    0.0000    0.0000    0.0000 H   0  0  0  0  0  0  0  0  0  0  0  0
    0.0000    0.0000    0.0000 H   0  0  0  0  0  0  0  0  0  0  0  0
    0.0000    0.0000    0.0000 H   0  0  0  0  0  0  0  0  0  0  0  0
    0.0000    0.0000    0.0000 H   0  0  0  0  0  0  0  0  0  0  0  0
    0.0000    0.0000    0.0000 H   0  0  0  0  0  0  0  0  0  0  0  0
    0.0000    0.0000    0.0000 H   0  0  0  0  0  0  0  0  0  0  0  0
    0.0000    0.0000    0.0000 H   0  0  0  0  0  0  0  0  0  0  0  0
    0.0000    0.0000    0.0000 H   0  0  0  0  0  0  0  0  0  0  0  0
    0.0000    0.0000    0.0000 H   0  0  0  0  0  0  0  0  0  0  0  0
    0.0000    0.0000    0.0000 H   0  0  0  0  0  0  0  0  0  0  0  0
  1  2  1  0
  2  7  2  0
  2  3  1  0
  3  4  2  0
  4  5  1  0
  5  6  2  0
  6  7  1  0
  5  8  1  0
  8  9  2  0
  8 10  1  0
  1 11  1  0
  1 12  1  0
  1 13  1  0
  3 14  1  0
  4 15  1  0
  6 16  1  0
  7 17  1  0
 10 18  1  0
 10 19  1  0
 10 20  1  0
M  END
>  <partial_charges>  (87) 
-0.0599000006914
-0.0500000007451
-0.143500000238
-0.0825999975204
-0.178000003099
-0.0825999975204
-0.143500000238
0.577300012112
-0.532899975777
-0.198899999261
0.0482000000775
0.0482000000775
0.0482000000775
0.135900005698
0.142000004649
0.142000004649
0.135900005698
0.0646999999881
0.0646999999881
0.0646999999881

>  <partial_bond_orders>  (87) 
1.0
2.0
1.0
2.0
1.0
2.0
1.0
1.0
2.0
1.0
1.0
1.0
1.0
1.0
1.0
1.0
1.0
1.0
1.0
1.0

>  <atom_types>  (87) 
c3
ca
ca
ca
ca
ca
ca
c
o
c3
hc
hc
hc
ha
ha
ha
ha
hc
hc
hc

>  <target>  (87) 
-4.7

>  <cal>  (87) 
-4.91

$$$$
mobley_6190089
     RDKit          3D

  8  7  0  0  0  0  0  0  0  0999 V2000
    0.1760   -0.6790    0.3270 C   0  0  0  0  0  0  0  0  0  0  0  0
   -0.0500    0.7540   -0.1660 C   0  0  0  0  0  0  0  0  0  0  0  0
   -0.3090    0.8600   -1.9300 Cl  0  0  0  0  0  0  0  0  0  0  0  0
   -1.4290    1.5170    0.6780 Cl  0  0  0  0  0  0  0  0  0  0  0  0
   -1.1970   -1.7680   -0.0180 Cl  0  0  0  0  0  0  0  0  0  0  0  0
    1.6670   -1.3740   -0.3720 Cl  0  0  0  0  0  0  0  0  0  0  0  0
    0.0000    0.0000    0.0000 H   0  0  0  0  0  0  0  0  0  0  0  0
    0.0000    0.0000    0.0000 H   0  0  0  0  0  0  0  0  0  0  0  0
  1  2  1  0
  2  3  1  0
  2  4  1  0
  1  5  1  0
  1  6  1  0
  1  7  1  0
  2  8  1  0
M  END
>  <partial_charges>  (88) 
0.122100003064
0.122199997306
-0.11779999733
-0.11779999733
-0.11779999733
-0.11779999733
0.113499999046
0.113499999046

>  <partial_bond_orders>  (88) 
1.0
1.0
1.0
1.0
1.0
1.0
1.0

>  <atom_types>  (88) 
c3
c3
cl
cl
cl
cl
h2
h2

>  <target>  (88) 
-2.37

>  <cal>  (88) 
-0.534

$$$$
mobley_7415647
     RDKit          3D

 24 24  0  0  0  0  0  0  0  0999 V2000
    1.0810   -0.1530   -0.2190 C   0  0  0  0  0  0  0  0  0  0  0  0
    1.5190    0.5270   -1.4290 N   0  0  0  0  0  0  0  0  0  0  0  0
    1.0620   -0.0610   -2.6860 C   0  0  0  0  0  0  0  0  0  0  0  0
    2.3230    1.6660   -1.3230 C   0  0  0  0  0  0  0  0  0  0  0  0
    2.7120    2.1690   -0.2700 O   0  0  0  0  0  0  0  0  0  0  0  0
    2.7670    2.3260   -2.5620 C   0  0  0  0  0  0  0  0  0  0  0  0
    3.9650    1.9430   -3.1650 C   0  0  0  0  0  0  0  0  0  0  0  0
    4.3850    2.5680   -4.3390 C   0  0  0  0  0  0  0  0  0  0  0  0
    3.6080    3.5760   -4.9090 C   0  0  0  0  0  0  0  0  0  0  0  0
    2.4100    3.9590   -4.3060 C   0  0  0  0  0  0  0  0  0  0  0  0
    1.9900    3.3340   -3.1320 C   0  0  0  0  0  0  0  0  0  0  0  0
    4.0370    4.2120   -6.1040 N   0  0  0  0  0  0  0  0  0  0  0  0
    3.3230    5.1170   -6.6010 O   0  0  0  0  0  0  0  0  0  0  0  0
    5.1170    3.8520   -6.6310 O   0  0  0  0  0  0  0  0  0  0  0  0
    0.0000    0.0000    0.0000 H   0  0  0  0  0  0  0  0  0  0  0  0
    0.0000    0.0000    0.0000 H   0  0  0  0  0  0  0  0  0  0  0  0
    0.0000    0.0000    0.0000 H   0  0  0  0  0  0  0  0  0  0  0  0
    0.0000    0.0000    0.0000 H   0  0  0  0  0  0  0  0  0  0  0  0
    0.0000    0.0000    0.0000 H   0  0  0  0  0  0  0  0  0  0  0  0
    0.0000    0.0000    0.0000 H   0  0  0  0  0  0  0  0  0  0  0  0
    0.0000    0.0000    0.0000 H   0  0  0  0  0  0  0  0  0  0  0  0
    0.0000    0.0000    0.0000 H   0  0  0  0  0  0  0  0  0  0  0  0
    0.0000    0.0000    0.0000 H   0  0  0  0  0  0  0  0  0  0  0  0
    0.0000    0.0000    0.0000 H   0  0  0  0  0  0  0  0  0  0  0  0
  1  2  1  0
  2  3  1  0
  2  4  1  0
  4  5  2  0
  4  6  1  0
  6 11  2  0
  6  7  1  0
  7  8  2  0
  8  9  1  0
  9 10  2  0
 10 11  1  0
  9 12  1  0
 12 13  1  0
 12 14  1  0
  1 15  1  0
  1 16  1  0
  1 17  1  0
  3 18  1  0
  3 19  1  0
  3 20  1  0
  7 21  1  0
  8 22  1  0
 10 23  1  0
 11 24  1  0
M  CHG  2  13  -1  14  -1
M  END
>  <partial_charges>  (89) 
0.0797000005841
-0.475800007582
0.0797000005841
0.663900017738
-0.580200016499
-0.0854000002146
-0.111699998379
-0.0706000030041
-0.167199999094
-0.0706000030041
-0.111699998379
0.312000006437
-0.204199999571
-0.204199999571
0.0461999997497
0.0461999997497
0.0461999997497
0.0461999997497
0.0461999997497
0.0461999997497
0.158899992704
0.175600007176
0.175600007176
0.158899992704

>  <partial_bond_orders>  (89) 
1.0
1.0
1.0
2.0
1.0
2.0
1.0
2.0
1.0
2.0
1.0
1.0
1.0
1.0
1.0
1.0
1.0
1.0
1.0
1.0
1.0
1.0
1.0
1.0

>  <atom_types>  (89) 
c3
n
c3
c
o
ca
ca
ca
ca
ca
ca
no
o
o
h1
h1
h1
h1
h1
h1
ha
ha
ha
ha

>  <target>  (89) 
-11.95

>  <cal>  (89) 
-10.036

$$$$
mobley_632905
     RDKit          3D

 21 21  0  0  0  0  0  0  0  0999 V2000
    1.2630    0.1370   -2.2520 C   0  0  0  0  0  0  0  0  0  0  0  0
    1.9290   -1.0140   -1.5660 C   0  0  0  0  0  0  0  0  0  0  0  0
    2.4680   -1.8710   -2.2590 O   0  0  0  0  0  0  0  0  0  0  0  0
    1.8850   -1.0360   -0.1120 C   0  0  0  0  0  0  0  0  0  0  0  0
    2.9210   -1.6310    0.6080 C   0  0  0  0  0  0  0  0  0  0  0  0
    2.8780   -1.6520    2.0020 C   0  0  0  0  0  0  0  0  0  0  0  0
    1.8000   -1.0790    2.6760 C   0  0  0  0  0  0  0  0  0  0  0  0
    0.7640   -0.4840    1.9550 C   0  0  0  0  0  0  0  0  0  0  0  0
    0.8070   -0.4630    0.5610 C   0  0  0  0  0  0  0  0  0  0  0  0
    1.7570   -1.0990    4.0360 O   0  0  0  0  0  0  0  0  0  0  0  0
    2.8490   -1.7220    4.7100 C   0  0  0  0  0  0  0  0  0  0  0  0
    0.0000    0.0000    0.0000 H   0  0  0  0  0  0  0  0  0  0  0  0
    0.0000    0.0000    0.0000 H   0  0  0  0  0  0  0  0  0  0  0  0
    0.0000    0.0000    0.0000 H   0  0  0  0  0  0  0  0  0  0  0  0
    0.0000    0.0000    0.0000 H   0  0  0  0  0  0  0  0  0  0  0  0
    0.0000    0.0000    0.0000 H   0  0  0  0  0  0  0  0  0  0  0  0
    0.0000    0.0000    0.0000 H   0  0  0  0  0  0  0  0  0  0  0  0
    0.0000    0.0000    0.0000 H   0  0  0  0  0  0  0  0  0  0  0  0
    0.0000    0.0000    0.0000 H   0  0  0  0  0  0  0  0  0  0  0  0
    0.0000    0.0000    0.0000 H   0  0  0  0  0  0  0  0  0  0  0  0
    0.0000    0.0000    0.0000 H   0  0  0  0  0  0  0  0  0  0  0  0
  1  2  1  0
  2  3  2  0
  2  4  1  0
  4  9  2  0
  4  5  1  0
  5  6  2  0
  6  7  1  0
  7  8  2  0
  8  9  1  0
  7 10  1  0
 10 11  1  0
  1 12  1  0
  1 13  1  0
  1 14  1  0
  5 15  1  0
  6 16  1  0
  8 17  1  0
  9 18  1  0
 11 19  1  0
 11 20  1  0
 11 21  1  0
M  END
>  <partial_charges>  (90) 
-0.199300006032
0.582000017166
-0.53869998455
-0.213400006294
-0.0513000003994
-0.193499997258
0.148399993777
-0.193499997258
-0.0513000003994
-0.323500007391
0.110399998724
0.0644000023603
0.0644000023603
0.0644000023603
0.145600005984
0.148200005293
0.148200005293
0.145600005984
0.0476000010967
0.0476000010967
0.0476000010967

>  <partial_bond_orders>  (90) 
1.0
2.0
1.0
2.0
1.0
2.0
1.0
2.0
1.0
1.0
1.0
1.0
1.0
1.0
1.0
1.0
1.0
1.0
1.0
1.0
1.0

>  <atom_types>  (90) 
c3
c
o
ca
ca
ca
ca
ca
ca
os
c3
hc
hc
hc
ha
ha
ha
ha
h1
h1
h1

>  <target>  (90) 
-4.4

>  <cal>  (90) 
-6.575

$$$$
mobley_1017962
     RDKit          3D

 23 22  0  0  0  0  0  0  0  0999 V2000
    0.0400    1.0640    0.1430 C   0  0  0  0  0  0  0  0  0  0  0  0
   -0.1600    1.4360    1.6040 C   0  0  0  0  0  0  0  0  0  0  0  0
    0.9240    0.8240    2.4920 C   0  0  0  0  0  0  0  0  0  0  0  0
    0.7150    1.2020    3.9620 C   0  0  0  0  0  0  0  0  0  0  0  0
    1.7850    0.6050    4.8760 C   0  0  0  0  0  0  0  0  0  0  0  0
    1.5950    0.9680    6.3320 C   0  0  0  0  0  0  0  0  0  0  0  0
    0.6920    1.6660    6.7720 O   0  0  0  0  0  0  0  0  0  0  0  0
    2.6090    0.4180    7.0630 O   0  0  0  0  0  0  0  0  0  0  0  0
    2.5830    0.7020    8.4650 C   0  0  0  0  0  0  0  0  0  0  0  0
    0.0000    0.0000    0.0000 H   0  0  0  0  0  0  0  0  0  0  0  0
    0.0000    0.0000    0.0000 H   0  0  0  0  0  0  0  0  0  0  0  0
    0.0000    0.0000    0.0000 H   0  0  0  0  0  0  0  0  0  0  0  0
    0.0000    0.0000    0.0000 H   0  0  0  0  0  0  0  0  0  0  0  0
    0.0000    0.0000    0.0000 H   0  0  0  0  0  0  0  0  0  0  0  0
    0.0000    0.0000    0.0000 H   0  0  0  0  0  0  0  0  0  0  0  0
    0.0000    0.0000    0.0000 H   0  0  0  0  0  0  0  0  0  0  0  0
    0.0000    0.0000    0.0000 H   0  0  0  0  0  0  0  0  0  0  0  0
    0.0000    0.0000    0.0000 H   0  0  0  0  0  0  0  0  0  0  0  0
    0.0000    0.0000    0.0000 H   0  0  0  0  0  0  0  0  0  0  0  0
    0.0000    0.0000    0.0000 H   0  0  0  0  0  0  0  0  0  0  0  0
    0.0000    0.0000    0.0000 H   0  0  0  0  0  0  0  0  0  0  0  0
    0.0000    0.0000    0.0000 H   0  0  0  0  0  0  0  0  0  0  0  0
    0.0000    0.0000    0.0000 H   0  0  0  0  0  0  0  0  0  0  0  0
  1  2  1  0
  2  3  1  0
  3  4  1  0
  4  5  1  0
  5  6  1  0
  6  7  2  0
  6  8  1  0
  8  9  1  0
  1 10  1  0
  1 11  1  0
  1 12  1  0
  2 13  1  0
  2 14  1  0
  3 15  1  0
  3 16  1  0
  4 17  1  0
  4 18  1  0
  5 19  1  0
  5 20  1  0
  9 21  1  0
  9 22  1  0
  9 23  1  0
M  END
>  <partial_charges>  (91) 
-0.0925000011921
-0.077699996531
-0.0852999985218
-0.0737000033259
-0.12729999423
0.63069999218
-0.538800001144
-0.446700006723
0.126000002027
0.0337999984622
0.0337999984622
0.0337999984622
0.0392999984324
0.0392999984324
0.0463000014424
0.0463000014424
0.0538000017405
0.0538000017405
0.0776000022888
0.0776000022888
0.0500000007451
0.0500000007451
0.0500000007451

>  <partial_bond_orders>  (91) 
1.0
1.0
1.0
1.0
1.0
2.0
1.0
1.0
1.0
1.0
1.0
1.0
1.0
1.0
1.0
1.0
1.0
1.0
1.0
1.0
1.0
1.0

>  <atom_types>  (91) 
c3
c3
c3
c3
c3
c
o
os
c3
hc
hc
hc
hc
hc
hc
hc
hc
hc
hc
hc
h1
h1
h1

>  <target>  (91) 
-2.49

>  <cal>  (91) 
-3.299

$$$$
mobley_1019269
     RDKit          3D

 15 14  0  0  0  0  0  0  0  0999 V2000
    0.3900   -1.0210   -0.0850 C   0  0  0  0  0  0  0  0  0  0  0  0
   -0.5800   -2.0240    0.5200 C   0  0  0  0  0  0  0  0  0  0  0  0
   -1.9310   -1.9920   -0.1890 C   0  0  0  0  0  0  0  0  0  0  0  0
   -2.9050   -2.9950    0.4140 C   0  0  0  0  0  0  0  0  0  0  0  0
   -4.1380   -2.9160   -0.2880 O   0  0  0  0  0  0  0  0  0  0  0  0
    0.0000    0.0000    0.0000 H   0  0  0  0  0  0  0  0  0  0  0  0
    0.0000    0.0000    0.0000 H   0  0  0  0  0  0  0  0  0  0  0  0
    0.0000    0.0000    0.0000 H   0  0  0  0  0  0  0  0  0  0  0  0
    0.0000    0.0000    0.0000 H   0  0  0  0  0  0  0  0  0  0  0  0
    0.0000    0.0000    0.0000 H   0  0  0  0  0  0  0  0  0  0  0  0
    0.0000    0.0000    0.0000 H   0  0  0  0  0  0  0  0  0  0  0  0
    0.0000    0.0000    0.0000 H   0  0  0  0  0  0  0  0  0  0  0  0
    0.0000    0.0000    0.0000 H   0  0  0  0  0  0  0  0  0  0  0  0
    0.0000    0.0000    0.0000 H   0  0  0  0  0  0  0  0  0  0  0  0
    0.0000    0.0000    0.0000 H   0  0  0  0  0  0  0  0  0  0  0  0
  1  2  1  0
  2  3  1  0
  3  4  1  0
  4  5  1  0
  1  6  1  0
  1  7  1  0
  1  8  1  0
  2  9  1  0
  2 10  1  0
  3 11  1  0
  3 12  1  0
  4 13  1  0
  4 14  1  0
  5 15  1  0
M  END
>  <partial_charges>  (92) 
-0.0917000025511
-0.0794000029564
-0.0854000002146
0.132499992847
-0.602800011635
0.0346000008285
0.0346000008285
0.0346000008285
0.0377999991179
0.0377999991179
0.0548000000417
0.0548000000417
0.0198999997228
0.0198999997228
0.398099988699

>  <partial_bond_orders>  (92) 
1.0
1.0
1.0
1.0
1.0
1.0
1.0
1.0
1.0
1.0
1.0
1.0
1.0
1.0

>  <atom_types>  (92) 
c3
c3
c3
c3
oh
hc
hc
hc
hc
hc
hc
hc
h1
h1
ho

>  <target>  (92) 
-4.72

>  <cal>  (92) 
-3.232

$$$$
mobley_1592519
     RDKit          3D

 26 25  0  0  0  0  0  0  0  0999 V2000
    0.0400    1.0640    0.1430 C   0  0  0  0  0  0  0  0  0  0  0  0
   -0.1600    1.4360    1.6040 C   0  0  0  0  0  0  0  0  0  0  0  0
    0.9240    0.8240    2.4920 C   0  0  0  0  0  0  0  0  0  0  0  0
    0.7150    1.2020    3.9620 C   0  0  0  0  0  0  0  0  0  0  0  0
    1.7850    0.6050    4.8760 C   0  0  0  0  0  0  0  0  0  0  0  0
    1.5950    0.9680    6.3320 C   0  0  0  0  0  0  0  0  0  0  0  0
    0.6920    1.6660    6.7720 O   0  0  0  0  0  0  0  0  0  0  0  0
    2.6090    0.4180    7.0630 O   0  0  0  0  0  0  0  0  0  0  0  0
    2.5830    0.7020    8.4650 C   0  0  0  0  0  0  0  0  0  0  0  0
    3.7650    0.0230    9.1160 C   0  0  0  0  0  0  0  0  0  0  0  0
    0.0000    0.0000    0.0000 H   0  0  0  0  0  0  0  0  0  0  0  0
    0.0000    0.0000    0.0000 H   0  0  0  0  0  0  0  0  0  0  0  0
    0.0000    0.0000    0.0000 H   0  0  0  0  0  0  0  0  0  0  0  0
    0.0000    0.0000    0.0000 H   0  0  0  0  0  0  0  0  0  0  0  0
    0.0000    0.0000    0.0000 H   0  0  0  0  0  0  0  0  0  0  0  0
    0.0000    0.0000    0.0000 H   0  0  0  0  0  0  0  0  0  0  0  0
    0.0000    0.0000    0.0000 H   0  0  0  0  0  0  0  0  0  0  0  0
    0.0000    0.0000    0.0000 H   0  0  0  0  0  0  0  0  0  0  0  0
    0.0000    0.0000    0.0000 H   0  0  0  0  0  0  0  0  0  0  0  0
    0.0000    0.0000    0.0000 H   0  0  0  0  0  0  0  0  0  0  0  0
    0.0000    0.0000    0.0000 H   0  0  0  0  0  0  0  0  0  0  0  0
    0.0000    0.0000    0.0000 H   0  0  0  0  0  0  0  0  0  0  0  0
    0.0000    0.0000    0.0000 H   0  0  0  0  0  0  0  0  0  0  0  0
    0.0000    0.0000    0.0000 H   0  0  0  0  0  0  0  0  0  0  0  0
    0.0000    0.0000    0.0000 H   0  0  0  0  0  0  0  0  0  0  0  0
    0.0000    0.0000    0.0000 H   0  0  0  0  0  0  0  0  0  0  0  0
  1  2  1  0
  2  3  1  0
  3  4  1  0
  4  5  1  0
  5  6  1  0
  6  7  2  0
  6  8  1  0
  8  9  1  0
  9 10  1  0
  1 11  1  0
  1 12  1  0
  1 13  1  0
  2 14  1  0
  2 15  1  0
  3 16  1  0
  3 17  1  0
  4 18  1  0
  4 19  1  0
  5 20  1  0
  5 21  1  0
  9 22  1  0
  9 23  1  0
 10 24  1  0
 10 25  1  0
 10 26  1  0
M  END
>  <partial_charges>  (93) 
-0.0944000035524
-0.0844999998808
-0.0817999988794
-0.0744000002742
-0.128499999642
0.637099981308
-0.537599980831
-0.453999996185
0.140000000596
-0.105700001121
0.0326999984682
0.0326999984682
0.0326999984682
0.0428000018001
0.0428000018001
0.0443999990821
0.0443999990821
0.054200001061
0.054200001061
0.0784000009298
0.0784000009298
0.0529000014067
0.0529000014067
0.0467000007629
0.0467000007629
0.0467000007629

>  <partial_bond_orders>  (93) 
1.0
1.0
1.0
1.0
1.0
2.0
1.0
1.0
1.0
1.0
1.0
1.0
1.0
1.0
1.0
1.0
1.0
1.0
1.0
1.0
1.0
1.0
1.0
1.0
1.0

>  <atom_types>  (93) 
c3
c3
c3
c3
c3
c
o
os
c3
c3
hc
hc
hc
hc
hc
hc
hc
hc
hc
hc
hc
h1
h1
hc
hc
hc

>  <target>  (93) 
-2.23

>  <cal>  (93) 
-2.929

$$$$
mobley_2881590
     RDKit          3D

 17 16  0  0  0  0  0  0  0  0999 V2000
    0.9980   -0.3580   -0.2740 C   0  0  0  0  0  0  0  0  0  0  0  0
    1.8180    0.7470   -0.9440 C   0  0  0  0  0  0  0  0  0  0  0  0
    1.1580    1.1800   -2.2510 C   0  0  0  0  0  0  0  0  0  0  0  0
    1.9990    1.9490   -0.0130 C   0  0  0  0  0  0  0  0  0  0  0  0
    2.6750    1.5480    1.1710 O   0  0  0  0  0  0  0  0  0  0  0  0
    2.8850    2.6090    2.0940 N   0  0  0  0  0  0  0  0  0  0  0  0
    2.4720    3.7280    1.7800 O   0  0  0  0  0  0  0  0  0  0  0  0
    3.4710    2.2470    3.1150 O   0  0  0  0  0  0  0  0  0  0  0  0
    0.0000    0.0000    0.0000 H   0  0  0  0  0  0  0  0  0  0  0  0
    0.0000    0.0000    0.0000 H   0  0  0  0  0  0  0  0  0  0  0  0
    0.0000    0.0000    0.0000 H   0  0  0  0  0  0  0  0  0  0  0  0
    0.0000    0.0000    0.0000 H   0  0  0  0  0  0  0  0  0  0  0  0
    0.0000    0.0000    0.0000 H   0  0  0  0  0  0  0  0  0  0  0  0
    0.0000    0.0000    0.0000 H   0  0  0  0  0  0  0  0  0  0  0  0
    0.0000    0.0000    0.0000 H   0  0  0  0  0  0  0  0  0  0  0  0
    0.0000    0.0000    0.0000 H   0  0  0  0  0  0  0  0  0  0  0  0
    0.0000    0.0000    0.0000 H   0  0  0  0  0  0  0  0  0  0  0  0
  1  2  1  0
  2  3  1  0
  2  4  1  0
  4  5  1  0
  5  6  1  0
  6  7  1  0
  6  8  1  0
  1  9  1  0
  1 10  1  0
  1 11  1  0
  2 12  1  0
  3 13  1  0
  3 14  1  0
  3 15  1  0
  4 16  1  0
  4 17  1  0
M  CHG  2   7  -1   8  -1
M  END
>  <partial_charges>  (94) 
-0.103000000119
-0.0901999995112
-0.103000000119
0.125400006771
-0.3492000103
0.375400006771
-0.182600006461
-0.182600006461
0.0452999994159
0.0452999994159
0.0452999994159
0.0662000030279
0.0452999994159
0.0452999994159
0.0452999994159
0.0859000012279
0.0859000012279

>  <partial_bond_orders>  (94) 
1.0
1.0
1.0
1.0
1.0
1.0
1.0
1.0
1.0
1.0
1.0
1.0
1.0
1.0
1.0
1.0

>  <atom_types>  (94) 
c3
c3
c3
c3
os
no
o
o
hc
hc
hc
hc
hc
hc
hc
h1
h1

>  <target>  (94) 
-1.88

>  <cal>  (94) 
-1.835

$$$$
mobley_7758918
     RDKit          3D

 11 10  0  0  0  0  0  0  0  0999 V2000
    0.7690   -0.5810   -0.5200 C   0  0  0  0  0  0  0  0  0  0  0  0
    0.3920   -0.8060   -1.9740 C   0  0  0  0  0  0  0  0  0  0  0  0
   -0.9080   -1.5560   -2.1110 C   0  0  0  0  0  0  0  0  0  0  0  0
   -1.6110   -1.9550   -1.1940 O   0  0  0  0  0  0  0  0  0  0  0  0
   -1.2060   -1.7350   -3.4230 O   0  0  0  0  0  0  0  0  0  0  0  0
    0.0000    0.0000    0.0000 H   0  0  0  0  0  0  0  0  0  0  0  0
    0.0000    0.0000    0.0000 H   0  0  0  0  0  0  0  0  0  0  0  0
    0.0000    0.0000    0.0000 H   0  0  0  0  0  0  0  0  0  0  0  0
    0.0000    0.0000    0.0000 H   0  0  0  0  0  0  0  0  0  0  0  0
    0.0000    0.0000    0.0000 H   0  0  0  0  0  0  0  0  0  0  0  0
    0.0000    0.0000    0.0000 H   0  0  0  0  0  0  0  0  0  0  0  0
  1  2  1  0
  2  3  1  0
  3  4  2  0
  3  5  1  0
  1  6  1  0
  1  7  1  0
  1  8  1  0
  2  9  1  0
  2 10  1  0
  5 11  1  0
M  END
>  <partial_charges>  (95) 
-0.0883999988437
-0.174700006843
0.623000025749
-0.481599986553
-0.58679997921
0.0504000000656
0.0504000000656
0.0504000000656
0.0679000020027
0.0679000020027
0.421400010586

>  <partial_bond_orders>  (95) 
1.0
1.0
2.0
1.0
1.0
1.0
1.0
1.0
1.0
1.0

>  <atom_types>  (95) 
c3
c3
c
o
oh
hc
hc
hc
hc
hc
ho

>  <target>  (95) 
-6.46

>  <cal>  (95) 
-9.088

$$$$
mobley_194273
     RDKit          3D

 27 27  0  0  1  0  0  0  0  0999 V2000
   -6.2540   -3.0930   -4.7230 C   0  0  0  0  0  0  0  0  0  0  0  0
   -5.0420   -2.9110   -3.8180 C   0  0  0  0  0  0  0  0  0  0  0  0
   -5.0560   -1.5710   -3.0720 C   0  0  0  0  0  0  0  0  0  0  0  0
   -3.8260   -1.4340   -2.1800 C   0  0  0  0  0  0  0  0  0  0  0  0
   -6.2610   -1.4220   -2.2640 N   0  0  0  0  0  0  0  0  0  0  0  0
   -6.5160   -2.3600   -1.2530 C   0  0  0  0  0  0  0  0  0  0  0  0
   -5.7840   -3.3160   -0.9970 O   0  0  0  0  0  0  0  0  0  0  0  0
   -7.7740   -2.1370   -0.4670 C   0  0  0  0  0  0  0  0  0  0  0  0
   -8.5620   -1.0900   -0.7650 C   0  0  0  0  0  0  0  0  0  0  0  0
   -8.2260   -0.2260   -1.7800 N   0  0  0  0  0  0  0  0  0  0  0  0
   -7.0960   -0.3300   -2.5690 C   0  0  0  0  0  0  0  0  0  0  0  0
   -6.8630    0.4860   -3.4640 O   0  0  0  0  0  0  0  0  0  0  0  0
   -9.8500   -0.7300   -0.0750 C   0  0  0  0  0  0  0  0  0  0  0  0
   -8.1290   -3.3790    0.8920 Br  0  0  0  0  0  0  0  0  0  0  0  0
    0.0000    0.0000    0.0000 H   0  0  0  0  0  0  0  0  0  0  0  0
    0.0000    0.0000    0.0000 H   0  0  0  0  0  0  0  0  0  0  0  0
    0.0000    0.0000    0.0000 H   0  0  0  0  0  0  0  0  0  0  0  0
    0.0000    0.0000    0.0000 H   0  0  0  0  0  0  0  0  0  0  0  0
    0.0000    0.0000    0.0000 H   0  0  0  0  0  0  0  0  0  0  0  0
    0.0000    0.0000    0.0000 H   0  0  0  0  0  0  0  0  0  0  0  0
    0.0000    0.0000    0.0000 H   0  0  0  0  0  0  0  0  0  0  0  0
    0.0000    0.0000    0.0000 H   0  0  0  0  0  0  0  0  0  0  0  0
    0.0000    0.0000    0.0000 H   0  0  0  0  0  0  0  0  0  0  0  0
    0.0000    0.0000    0.0000 H   0  0  0  0  0  0  0  0  0  0  0  0
    0.0000    0.0000    0.0000 H   0  0  0  0  0  0  0  0  0  0  0  0
    0.0000    0.0000    0.0000 H   0  0  0  0  0  0  0  0  0  0  0  0
    0.0000    0.0000    0.0000 H   0  0  0  0  0  0  0  0  0  0  0  0
  1  2  1  0
  2  3  1  0
  3  4  1  0
  3  5  1  0
  5 11  1  0
  5  6  1  0
  6  7  2  0
  6  8  1  0
  8  9  2  0
  9 10  1  0
 10 11  1  0
 11 12  2  0
  9 13  1  0
  8 14  1  0
  1 15  1  0
  1 16  1  0
  1 17  1  0
  2 18  1  0
  2 19  1  0
  3 20  1  0
  4 21  1  0
  4 22  1  0
  4 23  1  0
 10 24  1  0
 13 25  1  0
 13 26  1  0
 13 27  1  0
M  END
>  <partial_charges>  (96) 
-0.0920000001788
-0.101499997079
0.110500000417
0.0890000015497
-0.109499998391
-0.477999985218
0.730099976063
-0.590200006962
-0.251300007105
0.138799995184
-0.466899991035
0.807699978352
-0.639599978924
-0.0905999988317
-0.0148000000045
0.0351999998093
0.0351999998093
0.0351999998093
0.0615999996662
0.0615999996662
0.0509999990463
0.0509999990463
0.0509999990463
0.354000002146
0.0741999968886
0.0741999968886
0.0741999968886

>  <partial_bond_orders>  (96) 
1.0
1.0
1.0
1.0
1.0
1.0
1.0
2.0
1.0
2.0
1.0
1.0
2.0
1.0
1.0
1.0
1.0
1.0
1.0
1.0
1.0
1.0
1.0
1.0
1.0
1.0
1.0

>  <atom_types>  (96) 
c3
c3
c3
h1
c3
n
c
o
cc
cd
n
c
o
c3
br
hc
hc
hc
hc
hc
hc
hc
hc
hn
hc
hc
hc

>  <target>  (96) 
-9.73

>  <cal>  (96) 
-14.496

$$$$
mobley_9794857
     RDKit          3D

 18 17  0  0  0  0  0  0  0  0999 V2000
   -0.4650   -0.0650    0.9890 C   0  0  0  0  0  0  0  0  0  0  0  0
    0.5610   -0.3990    2.0720 C   0  0  0  0  0  0  0  0  0  0  0  0
    1.6270    0.6910    2.1570 C   0  0  0  0  0  0  0  0  0  0  0  0
    1.2040   -1.7600    1.8120 C   0  0  0  0  0  0  0  0  0  0  0  0
   -0.1080   -0.4450    3.3330 O   0  0  0  0  0  0  0  0  0  0  0  0
   -1.1270   -1.4330    3.3390 C   0  0  0  0  0  0  0  0  0  0  0  0
    0.0000    0.0000    0.0000 H   0  0  0  0  0  0  0  0  0  0  0  0
    0.0000    0.0000    0.0000 H   0  0  0  0  0  0  0  0  0  0  0  0
    0.0000    0.0000    0.0000 H   0  0  0  0  0  0  0  0  0  0  0  0
    0.0000    0.0000    0.0000 H   0  0  0  0  0  0  0  0  0  0  0  0
    0.0000    0.0000    0.0000 H   0  0  0  0  0  0  0  0  0  0  0  0
    0.0000    0.0000    0.0000 H   0  0  0  0  0  0  0  0  0  0  0  0
    0.0000    0.0000    0.0000 H   0  0  0  0  0  0  0  0  0  0  0  0
    0.0000    0.0000    0.0000 H   0  0  0  0  0  0  0  0  0  0  0  0
    0.0000    0.0000    0.0000 H   0  0  0  0  0  0  0  0  0  0  0  0
    0.0000    0.0000    0.0000 H   0  0  0  0  0  0  0  0  0  0  0  0
    0.0000    0.0000    0.0000 H   0  0  0  0  0  0  0  0  0  0  0  0
    0.0000    0.0000    0.0000 H   0  0  0  0  0  0  0  0  0  0  0  0
  1  2  1  0
  2  3  1  0
  2  4  1  0
  2  5  1  0
  5  6  1  0
  1  7  1  0
  1  8  1  0
  1  9  1  0
  3 10  1  0
  3 11  1  0
  3 12  1  0
  4 13  1  0
  4 14  1  0
  4 15  1  0
  6 16  1  0
  6 17  1  0
  6 18  1  0
M  END
>  <partial_charges>  (97) 
-0.107900001109
0.148399993777
-0.107900001109
-0.107900001109
-0.418999999762
0.117899999022
0.0425999984145
0.0425999984145
0.0425999984145
0.0425999984145
0.0425999984145
0.0425999984145
0.0425999984145
0.0425999984145
0.0425999984145
0.0311999991536
0.0311999991536
0.0311999991536

>  <partial_bond_orders>  (97) 
1.0
1.0
1.0
1.0
1.0
1.0
1.0
1.0
1.0
1.0
1.0
1.0
1.0
1.0
1.0
1.0
1.0

>  <atom_types>  (97) 
c3
c3
c3
c3
os
c3
hc
hc
hc
hc
hc
hc
hc
hc
hc
h1
h1
h1

>  <target>  (97) 
-2.21

>  <cal>  (97) 
-0.691

$$$$
mobley_252413
     RDKit          3D

 23 22  0  0  0  0  0  0  0  0999 V2000
   -2.8790   -0.4880   -1.3890 C   0  0  0  0  0  0  0  0  0  0  0  0
   -1.7140   -1.0600   -0.5930 C   0  0  0  0  0  0  0  0  0  0  0  0
   -0.5260   -0.0910   -0.5770 C   0  0  0  0  0  0  0  0  0  0  0  0
    0.7240   -0.5700    0.2080 C   0  0  0  0  0  0  0  0  0  0  0  0
    1.2200   -1.8820   -0.4320 C   0  0  0  0  0  0  0  0  0  0  0  0
    0.3830   -0.8460    1.6820 C   0  0  0  0  0  0  0  0  0  0  0  0
    1.8580    0.4660    0.1360 C   0  0  0  0  0  0  0  0  0  0  0  0
    0.0000    0.0000    0.0000 H   0  0  0  0  0  0  0  0  0  0  0  0
    0.0000    0.0000    0.0000 H   0  0  0  0  0  0  0  0  0  0  0  0
    0.0000    0.0000    0.0000 H   0  0  0  0  0  0  0  0  0  0  0  0
    0.0000    0.0000    0.0000 H   0  0  0  0  0  0  0  0  0  0  0  0
    0.0000    0.0000    0.0000 H   0  0  0  0  0  0  0  0  0  0  0  0
    0.0000    0.0000    0.0000 H   0  0  0  0  0  0  0  0  0  0  0  0
    0.0000    0.0000    0.0000 H   0  0  0  0  0  0  0  0  0  0  0  0
    0.0000    0.0000    0.0000 H   0  0  0  0  0  0  0  0  0  0  0  0
    0.0000    0.0000    0.0000 H   0  0  0  0  0  0  0  0  0  0  0  0
    0.0000    0.0000    0.0000 H   0  0  0  0  0  0  0  0  0  0  0  0
    0.0000    0.0000    0.0000 H   0  0  0  0  0  0  0  0  0  0  0  0
    0.0000    0.0000    0.0000 H   0  0  0  0  0  0  0  0  0  0  0  0
    0.0000    0.0000    0.0000 H   0  0  0  0  0  0  0  0  0  0  0  0
    0.0000    0.0000    0.0000 H   0  0  0  0  0  0  0  0  0  0  0  0
    0.0000    0.0000    0.0000 H   0  0  0  0  0  0  0  0  0  0  0  0
    0.0000    0.0000    0.0000 H   0  0  0  0  0  0  0  0  0  0  0  0
  1  2  1  0
  2  3  1  0
  3  4  1  0
  4  5  1  0
  4  6  1  0
  4  7  1  0
  1  8  1  0
  1  9  1  0
  1 10  1  0
  2 11  1  0
  2 12  1  0
  3 13  1  0
  3 14  1  0
  5 15  1  0
  5 16  1  0
  5 17  1  0
  6 18  1  0
  6 19  1  0
  6 20  1  0
  7 21  1  0
  7 22  1  0
  7 23  1  0
M  END
>  <partial_charges>  (98) 
-0.0922999978065
-0.0798999965191
-0.068400003016
-0.055300001055
-0.0860999971628
-0.0860999971628
-0.0860999971628
0.0320000015199
0.0320000015199
0.0320000015199
0.0399999991059
0.0399999991059
0.0384999997914
0.0384999997914
0.0335000008345
0.0335000008345
0.0335000008345
0.0335000008345
0.0335000008345
0.0335000008345
0.0335000008345
0.0335000008345
0.0335000008345

>  <partial_bond_orders>  (98) 
1.0
1.0
1.0
1.0
1.0
1.0
1.0
1.0
1.0
1.0
1.0
1.0
1.0
1.0
1.0
1.0
1.0
1.0
1.0
1.0
1.0
1.0

>  <atom_types>  (98) 
c3
c3
c3
c3
c3
c3
c3
hc
hc
hc
hc
hc
hc
hc
hc
hc
hc
hc
hc
hc
hc
hc
hc

>  <target>  (98) 
2.88

>  <cal>  (98) 
2.686

$$$$
mobley_3727287
     RDKit          3D

 12 12  0  0  0  0  0  0  0  0999 V2000
    1.4000   -0.2820   -0.0300 C   0  0  0  0  0  0  0  0  0  0  0  0
    1.0220    0.9980   -0.0050 C   0  0  0  0  0  0  0  0  0  0  0  0
   -0.4070    1.3760    0.0270 C   0  0  0  0  0  0  0  0  0  0  0  0
   -0.7540    2.5510    0.0490 O   0  0  0  0  0  0  0  0  0  0  0  0
   -1.4000    0.2810    0.0300 C   0  0  0  0  0  0  0  0  0  0  0  0
   -1.0220   -0.9980    0.0050 C   0  0  0  0  0  0  0  0  0  0  0  0
    0.4070   -1.3750   -0.0270 C   0  0  0  0  0  0  0  0  0  0  0  0
    0.7540   -2.5510   -0.0500 O   0  0  0  0  0  0  0  0  0  0  0  0
    0.0000    0.0000    0.0000 H   0  0  0  0  0  0  0  0  0  0  0  0
    0.0000    0.0000    0.0000 H   0  0  0  0  0  0  0  0  0  0  0  0
    0.0000    0.0000    0.0000 H   0  0  0  0  0  0  0  0  0  0  0  0
    0.0000    0.0000    0.0000 H   0  0  0  0  0  0  0  0  0  0  0  0
  1  7  1  0
  1  2  2  0
  2  3  1  0
  3  4  2  0
  3  5  1  0
  5  6  2  0
  6  7  1  0
  7  8  2  0
  1  9  1  0
  2 10  1  0
  5 11  1  0
  6 12  1  0
M  END
>  <partial_charges>  (99) 
-0.181999996305
-0.181899994612
0.532800018787
-0.490799993277
-0.181899994612
-0.181899994612
0.532800018787
-0.490799993277
0.160899996758
0.160899996758
0.160899996758
0.160899996758

>  <partial_bond_orders>  (99) 
1.0
2.0
1.0
2.0
1.0
2.0
1.0
2.0
1.0
1.0
1.0
1.0

>  <atom_types>  (99) 
cc
cd
c
o
cc
cd
c
o
ha
ha
ha
ha

>  <target>  (99) 
-6.5

>  <cal>  (99) 
-6.96

$$$$
mobley_2316618
     RDKit          3D

 33 35  0  0  0  0  0  0  0  0999 V2000
    1.2900   -1.6870   -0.3520 C   0  0  0  0  0  0  0  0  0  0  0  0
    0.9560   -0.4630    0.2260 C   0  0  0  0  0  0  0  0  0  0  0  0
    1.8480    0.1680    1.0930 C   0  0  0  0  0  0  0  0  0  0  0  0
    3.0810   -0.4280    1.3840 C   0  0  0  0  0  0  0  0  0  0  0  0
    3.4160   -1.6540    0.8060 C   0  0  0  0  0  0  0  0  0  0  0  0
    2.5180   -2.2840   -0.0640 C   0  0  0  0  0  0  0  0  0  0  0  0
    4.7130   -2.2940    1.1040 C   0  0  0  0  0  0  0  0  0  0  0  0
    5.0080   -3.3690    0.5970 O   0  0  0  0  0  0  0  0  0  0  0  0
    5.6520   -1.6180    2.0240 C   0  0  0  0  0  0  0  0  0  0  0  0
    6.8850   -2.2140    2.3150 C   0  0  0  0  0  0  0  0  0  0  0  0
    7.7770   -1.5830    3.1820 C   0  0  0  0  0  0  0  0  0  0  0  0
    7.4420   -0.3590    3.7590 C   0  0  0  0  0  0  0  0  0  0  0  0
    6.2150    0.2380    3.4720 C   0  0  0  0  0  0  0  0  0  0  0  0
    5.3170   -0.3920    2.6020 C   0  0  0  0  0  0  0  0  0  0  0  0
    4.0190    0.2480    2.3040 C   0  0  0  0  0  0  0  0  0  0  0  0
    3.6910    1.3220    2.7910 O   0  0  0  0  0  0  0  0  0  0  0  0
    5.9470    1.4790    4.0950 N   0  0  0  0  0  0  0  0  0  0  0  0
    6.8690    2.1140    4.9820 C   0  0  0  0  0  0  0  0  0  0  0  0
    6.3150    3.4460    5.5090 C   0  0  0  0  0  0  0  0  0  0  0  0
    5.1040    3.1930    6.2100 O   0  0  0  0  0  0  0  0  0  0  0  0
    0.0000    0.0000    0.0000 H   0  0  0  0  0  0  0  0  0  0  0  0
    0.0000    0.0000    0.0000 H   0  0  0  0  0  0  0  0  0  0  0  0
    0.0000    0.0000    0.0000 H   0  0  0  0  0  0  0  0  0  0  0  0
    0.0000    0.0000    0.0000 H   0  0  0  0  0  0  0  0  0  0  0  0
    0.0000    0.0000    0.0000 H   0  0  0  0  0  0  0  0  0  0  0  0
    0.0000    0.0000    0.0000 H   0  0  0  0  0  0  0  0  0  0  0  0
    0.0000    0.0000    0.0000 H   0  0  0  0  0  0  0  0  0  0  0  0
    0.0000    0.0000    0.0000 H   0  0  0  0  0  0  0  0  0  0  0  0
    0.0000    0.0000    0.0000 H   0  0  0  0  0  0  0  0  0  0  0  0
    0.0000    0.0000    0.0000 H   0  0  0  0  0  0  0  0  0  0  0  0
    0.0000    0.0000    0.0000 H   0  0  0  0  0  0  0  0  0  0  0  0
    0.0000    0.0000    0.0000 H   0  0  0  0  0  0  0  0  0  0  0  0
    0.0000    0.0000    0.0000 H   0  0  0  0  0  0  0  0  0  0  0  0
  1  6  2  0
  1  2  1  0
  2  3  2  0
  3  4  1  0
  4 15  1  0
  4  5  2  0
  5  6  1  0
  5  7  1  0
  7  8  2  0
  7  9  1  0
  9 14  2  0
  9 10  1  0
 10 11  2  0
 11 12  1  0
 12 13  2  0
 13 14  1  0
 14 15  1  0
 15 16  2  0
 13 17  1  0
 17 18  1  0
 18 19  1  0
 19 20  1  0
  1 21  1  0
  2 22  1  0
  3 23  1  0
  6 24  1  0
 10 25  1  0
 11 26  1  0
 12 27  1  0
 17 28  1  0
 18 29  1  0
 18 30  1  0
 19 31  1  0
 19 32  1  0
 20 33  1  0
M  END
>  <partial_charges>  (100) 
-0.11930000037
-0.116800002754
-0.0882000029087
-0.125499993563
-0.129800006747
-0.0860999971628
0.583199977875
-0.52429997921
-0.077699996531
-0.148200005293
-0.0658999979496
-0.207100003958
0.259099990129
-0.223800003529
0.60229998827
-0.574100017548
-0.777400016785
0.182799994946
0.0969000011683
-0.589299976826
0.140100002289
0.1412999928
0.160799995065
0.159199997783
0.161100000143
0.139300003648
0.136299997568
0.471199989319
0.0562000013888
0.0562000013888
0.0553999990225
0.0553999990225
0.396800011396

>  <partial_bond_orders>  (100) 
2.0
1.0
2.0
1.0
1.0
2.0
1.0
1.0
2.0
1.0
2.0
1.0
2.0
1.0
2.0
1.0
1.0
2.0
1.0
1.0
1.0
1.0
1.0
1.0
1.0
1.0
1.0
1.0
1.0
1.0
1.0
1.0
1.0
1.0
1.0

>  <atom_types>  (100) 
ca
ca
ca
ca
ca
ca
c
o
ca
ca
ca
ca
ca
ca
c
o
nh
c3
c3
oh
ha
ha
ha
ha
ha
ha
ha
hn
h1
h1
h1
h1
ho

>  <target>  (100) 
-14.21

>  <cal>  (100) 
-13.599

$$$$
mobley_1728386
     RDKit          3D

 16 16  0  0  0  0  0  0  0  0999 V2000
    1.8850   -1.0360   -0.1120 C   0  0  0  0  0  0  0  0  0  0  0  0
    2.9210   -1.6310    0.6080 C   0  0  0  0  0  0  0  0  0  0  0  0
    2.8780   -1.6520    2.0020 C   0  0  0  0  0  0  0  0  0  0  0  0
    1.8000   -1.0790    2.6760 C   0  0  0  0  0  0  0  0  0  0  0  0
    0.7640   -0.4840    1.9550 C   0  0  0  0  0  0  0  0  0  0  0  0
    0.8070   -0.4630    0.5610 C   0  0  0  0  0  0  0  0  0  0  0  0
    1.7550   -1.1010    4.1290 C   0  0  0  0  0  0  0  0  0  0  0  0
    0.7990   -0.6120    4.7560 O   0  0  0  0  0  0  0  0  0  0  0  0
    2.8130   -1.7060    4.8000 N   0  0  0  0  0  0  0  0  0  0  0  0
    0.0000    0.0000    0.0000 H   0  0  0  0  0  0  0  0  0  0  0  0
    0.0000    0.0000    0.0000 H   0  0  0  0  0  0  0  0  0  0  0  0
    0.0000    0.0000    0.0000 H   0  0  0  0  0  0  0  0  0  0  0  0
    0.0000    0.0000    0.0000 H   0  0  0  0  0  0  0  0  0  0  0  0
    0.0000    0.0000    0.0000 H   0  0  0  0  0  0  0  0  0  0  0  0
    0.0000    0.0000    0.0000 H   0  0  0  0  0  0  0  0  0  0  0  0
    0.0000    0.0000    0.0000 H   0  0  0  0  0  0  0  0  0  0  0  0
  1  6  2  0
  1  2  1  0
  2  3  2  0
  3  4  1  0
  4  5  2  0
  5  6  1  0
  4  7  1  0
  7  8  2  0
  7  9  1  0
  1 10  1  0
  2 11  1  0
  3 12  1  0
  5 13  1  0
  6 14  1  0
  9 15  1  0
  9 16  1  0
M  END
>  <partial_charges>  (101) 
-0.10339999944
-0.143099993467
-0.0873000025749
-0.139300003648
-0.0873000025749
-0.143099993467
0.672200024128
-0.617100000381
-0.674099981785
0.138999998569
0.134599998593
0.144999995828
0.144999995828
0.134599998593
0.312000006437
0.312000006437

>  <partial_bond_orders>  (101) 
2.0
1.0
2.0
1.0
2.0
1.0
1.0
2.0
1.0
1.0
1.0
1.0
1.0
1.0
1.0
1.0

>  <atom_types>  (101) 
ca
ca
ca
ca
ca
ca
c
o
n
ha
ha
ha
ha
ha
hn
hn

>  <target>  (101) 
-11.0

>  <cal>  (101) 
-10.412

$$$$
mobley_2661134
     RDKit          3D

 14 14  0  0  0  0  0  0  0  0999 V2000
    1.8850   -1.0360   -0.1120 C   0  0  0  0  0  0  0  0  0  0  0  0
    2.9210   -1.6310    0.6080 C   0  0  0  0  0  0  0  0  0  0  0  0
    2.8780   -1.6520    2.0020 C   0  0  0  0  0  0  0  0  0  0  0  0
    1.8000   -1.0790    2.6760 C   0  0  0  0  0  0  0  0  0  0  0  0
    0.7640   -0.4840    1.9550 C   0  0  0  0  0  0  0  0  0  0  0  0
    0.8070   -0.4630    0.5610 C   0  0  0  0  0  0  0  0  0  0  0  0
   -0.2880    0.0770    2.6120 O   0  0  0  0  0  0  0  0  0  0  0  0
    3.9400   -2.2610    2.7400 C   0  0  0  0  0  0  0  0  0  0  0  0
    4.8030   -2.7570    3.3400 N   0  0  0  0  0  0  0  0  0  0  0  0
    0.0000    0.0000    0.0000 H   0  0  0  0  0  0  0  0  0  0  0  0
    0.0000    0.0000    0.0000 H   0  0  0  0  0  0  0  0  0  0  0  0
    0.0000    0.0000    0.0000 H   0  0  0  0  0  0  0  0  0  0  0  0
    0.0000    0.0000    0.0000 H   0  0  0  0  0  0  0  0  0  0  0  0
    0.0000    0.0000    0.0000 H   0  0  0  0  0  0  0  0  0  0  0  0
  1  6  2  0
  1  2  1  0
  2  3  2  0
  3  4  1  0
  4  5  2  0
  5  6  1  0
  5  7  1  0
  3  8  1  0
  8  9  3  0
  1 10  1  0
  2 11  1  0
  4 12  1  0
  6 13  1  0
  7 14  1  0
M  END
>  <partial_charges>  (102) 
-0.095600001514
-0.128199994564
0.0168999992311
-0.120899997652
0.121500000358
-0.192499995232
-0.49200001359
0.232299998403
-0.35719999671
0.141100004315
0.148200005293
0.163699999452
0.139699995518
0.423200011253

>  <partial_bond_orders>  (102) 
2.0
1.0
2.0
1.0
2.0
1.0
1.0
1.0
3.0
1.0
1.0
1.0
1.0
1.0

>  <atom_types>  (102) 
ca
ca
ca
ca
ca
ca
oh
cg
n1
ha
ha
ha
ha
ho

>  <target>  (102) 
-9.65

>  <cal>  (102) 
-7.739

$$$$
mobley_2146331
     RDKit          3D

  4  3  0  0  0  0  0  0  0  0999 V2000
   -0.0050    0.0110    0.0000 C   0  0  0  0  0  0  0  0  0  0  0  0
    0.5130   -1.0980   -0.0040 O   0  0  0  0  0  0  0  0  0  0  0  0
    0.0000    0.0000    0.0000 H   0  0  0  0  0  0  0  0  0  0  0  0
    0.0000    0.0000    0.0000 H   0  0  0  0  0  0  0  0  0  0  0  0
  1  2  2  0
  1  3  1  0
  1  4  1  0
M  END
>  <partial_charges>  (103) 
0.563300013542
-0.514800012112
-0.024299999699
-0.024299999699

>  <partial_bond_orders>  (103) 
2.0
1.0
1.0

>  <atom_types>  (103) 
c
o
h4
h4

>  <target>  (103) 
-2.75

>  <cal>  (103) 
-3.155

$$$$
mobley_1662128
     RDKit          3D

 12 11  0  0  0  0  0  0  0  0999 V2000
    4.0770   -1.5620    0.7360 C   0  0  0  0  0  0  0  0  0  0  0  0
    2.9340   -1.8740   -0.2180 C   0  0  0  0  0  0  0  0  0  0  0  0
    1.9490   -0.7460   -0.2810 C   0  0  0  0  0  0  0  0  0  0  0  0
    0.8850   -0.6360    0.5220 C   0  0  0  0  0  0  0  0  0  0  0  0
    0.0000    0.0000    0.0000 H   0  0  0  0  0  0  0  0  0  0  0  0
    0.0000    0.0000    0.0000 H   0  0  0  0  0  0  0  0  0  0  0  0
    0.0000    0.0000    0.0000 H   0  0  0  0  0  0  0  0  0  0  0  0
    0.0000    0.0000    0.0000 H   0  0  0  0  0  0  0  0  0  0  0  0
    0.0000    0.0000    0.0000 H   0  0  0  0  0  0  0  0  0  0  0  0
    0.0000    0.0000    0.0000 H   0  0  0  0  0  0  0  0  0  0  0  0
    0.0000    0.0000    0.0000 H   0  0  0  0  0  0  0  0  0  0  0  0
    0.0000    0.0000    0.0000 H   0  0  0  0  0  0  0  0  0  0  0  0
  1  2  1  0
  2  3  1  0
  3  4  2  3
  1  5  1  0
  1  6  1  0
  1  7  1  0
  2  8  1  0
  2  9  1  0
  3 10  1  0
  4 11  1  0
  4 12  1  0
M  END
>  <partial_charges>  (104) 
-0.0881000012159
-0.0542999990284
-0.162400007248
-0.223900005221
0.0344999991357
0.0344999991357
0.0344999991357
0.0439000017941
0.0439000017941
0.117299996316
0.110100001097
0.110100001097

>  <partial_bond_orders>  (104) 
1.0
1.0
2.0
1.0
1.0
1.0
1.0
1.0
1.0
1.0
1.0

>  <atom_types>  (104) 
c3
c3
c2
c2
hc
hc
hc
hc
hc
ha
ha
ha

>  <target>  (104) 
1.38

>  <cal>  (104) 
2.367

$$$$
mobley_7200804
     RDKit          3D

 13 13  0  0  0  0  0  0  0  0999 V2000
    1.8850   -1.0360   -0.1120 C   0  0  0  0  0  0  0  0  0  0  0  0
    2.9210   -1.6310    0.6080 C   0  0  0  0  0  0  0  0  0  0  0  0
    2.8780   -1.6520    2.0020 C   0  0  0  0  0  0  0  0  0  0  0  0
    1.8000   -1.0790    2.6760 C   0  0  0  0  0  0  0  0  0  0  0  0
    0.7640   -0.4840    1.9550 C   0  0  0  0  0  0  0  0  0  0  0  0
    0.8070   -0.4630    0.5610 C   0  0  0  0  0  0  0  0  0  0  0  0
   -0.2890    0.0760    2.6110 O   0  0  0  0  0  0  0  0  0  0  0  0
    1.7640   -1.1020    4.0150 F   0  0  0  0  0  0  0  0  0  0  0  0
    0.0000    0.0000    0.0000 H   0  0  0  0  0  0  0  0  0  0  0  0
    0.0000    0.0000    0.0000 H   0  0  0  0  0  0  0  0  0  0  0  0
    0.0000    0.0000    0.0000 H   0  0  0  0  0  0  0  0  0  0  0  0
    0.0000    0.0000    0.0000 H   0  0  0  0  0  0  0  0  0  0  0  0
    0.0000    0.0000    0.0000 H   0  0  0  0  0  0  0  0  0  0  0  0
  1  6  2  0
  1  2  1  0
  2  3  2  0
  3  4  1  0
  4  5  2  0
  5  6  1  0
  5  7  1  0
  4  8  1  0
  1  9  1  0
  2 10  1  0
  3 11  1  0
  6 12  1  0
  7 13  1  0
M  END
>  <partial_charges>  (105) 
-0.107600003481
-0.143500000238
-0.122299998999
0.035300001502
0.097999997437
-0.1386000067
-0.489499986172
-0.147200003266
0.140100002289
0.139300003648
0.150099992752
0.15530000627
0.430500000715

>  <partial_bond_orders>  (105) 
2.0
1.0
2.0
1.0
2.0
1.0
1.0
1.0
1.0
1.0
1.0
1.0
1.0

>  <atom_types>  (105) 
ca
ca
ca
ca
ca
ca
oh
f
ha
ha
ha
ha
ho

>  <target>  (105) 
-5.29

>  <cal>  (105) 
-3.346

$$$$
mobley_5110043
     RDKit          3D

 24 25  0  0  0  0  0  0  0  0999 V2000
   -1.8840   -1.7020    0.9270 C   0  0  0  0  0  0  0  0  0  0  0  0
   -0.4970   -2.0340    0.4940 C   0  0  0  0  0  0  0  0  0  0  0  0
    0.3500   -1.0280    0.0390 C   0  0  0  0  0  0  0  0  0  0  0  0
    1.6480   -1.3370   -0.3660 C   0  0  0  0  0  0  0  0  0  0  0  0
    2.1170   -2.6600   -0.3220 C   0  0  0  0  0  0  0  0  0  0  0  0
    3.4210   -2.9900   -0.7270 C   0  0  0  0  0  0  0  0  0  0  0  0
    3.8690   -4.3100   -0.6760 C   0  0  0  0  0  0  0  0  0  0  0  0
    3.0230   -5.3170   -0.2210 C   0  0  0  0  0  0  0  0  0  0  0  0
    1.7240   -5.0070    0.1850 C   0  0  0  0  0  0  0  0  0  0  0  0
    1.2560   -3.6840    0.1400 C   0  0  0  0  0  0  0  0  0  0  0  0
   -0.0480   -3.3540    0.5450 C   0  0  0  0  0  0  0  0  0  0  0  0
    5.2570   -4.6430   -1.1090 C   0  0  0  0  0  0  0  0  0  0  0  0
    0.0000    0.0000    0.0000 H   0  0  0  0  0  0  0  0  0  0  0  0
    0.0000    0.0000    0.0000 H   0  0  0  0  0  0  0  0  0  0  0  0
    0.0000    0.0000    0.0000 H   0  0  0  0  0  0  0  0  0  0  0  0
    0.0000    0.0000    0.0000 H   0  0  0  0  0  0  0  0  0  0  0  0
    0.0000    0.0000    0.0000 H   0  0  0  0  0  0  0  0  0  0  0  0
    0.0000    0.0000    0.0000 H   0  0  0  0  0  0  0  0  0  0  0  0
    0.0000    0.0000    0.0000 H   0  0  0  0  0  0  0  0  0  0  0  0
    0.0000    0.0000    0.0000 H   0  0  0  0  0  0  0  0  0  0  0  0
    0.0000    0.0000    0.0000 H   0  0  0  0  0  0  0  0  0  0  0  0
    0.0000    0.0000    0.0000 H   0  0  0  0  0  0  0  0  0  0  0  0
    0.0000    0.0000    0.0000 H   0  0  0  0  0  0  0  0  0  0  0  0
    0.0000    0.0000    0.0000 H   0  0  0  0  0  0  0  0  0  0  0  0
  1  2  1  0
  2 11  2  0
  2  3  1  0
  3  4  2  0
  4  5  1  0
  5 10  2  0
  5  6  1  0
  6  7  2  0
  7  8  1  0
  8  9  2  0
  9 10  1  0
 10 11  1  0
  7 12  1  0
  1 13  1  0
  1 14  1  0
  1 15  1  0
  3 16  1  0
  4 17  1  0
  6 18  1  0
  8 19  1  0
  9 20  1  0
 11 21  1  0
 12 22  1  0
 12 23  1  0
 12 24  1  0
M  END
>  <partial_charges>  (106) 
-0.0538999997079
-0.0768000036478
-0.123599998653
-0.116400003433
-0.0355999991298
-0.120700001717
-0.0768000036478
-0.123599998653
-0.116400003433
-0.0355999991298
-0.120700001717
-0.0538000017405
0.0441999994218
0.0441999994218
0.0441999994218
0.131799995899
0.131400004029
0.131099998951
0.131799995899
0.131400004029
0.131099998951
0.0441999994218
0.0441999994218
0.0441999994218

>  <partial_bond_orders>  (106) 
1.0
2.0
1.0
2.0
1.0
2.0
1.0
2.0
1.0
2.0
1.0
1.0
1.0
1.0
1.0
1.0
1.0
1.0
1.0
1.0
1.0
1.0
1.0
1.0
1.0

>  <atom_types>  (106) 
c3
ca
ca
ca
ca
ca
ca
ca
ca
ca
ca
c3
hc
hc
hc
ha
ha
ha
ha
ha
ha
hc
hc
hc

>  <target>  (106) 
-2.63

>  <cal>  (106) 
-2.848

$$$$
mobley_7176248
     RDKit          3D

 39 39  0  0  0  0  0  0  0  0999 V2000
    3.4480    3.6060   -0.0290 C   0  0  0  0  0  0  0  0  0  0  0  0
    3.6340    2.8450   -1.3340 C   0  0  0  0  0  0  0  0  0  0  0  0
    2.6190    1.7220   -1.5110 C   0  0  0  0  0  0  0  0  0  0  0  0
    2.8010    1.0090   -2.7450 N   0  0  0  0  0  0  0  0  0  0  0  0
    2.7100    1.7480   -4.0090 C   0  0  0  0  0  0  0  0  0  0  0  0
    1.3460    2.3800   -4.1790 C   0  0  0  0  0  0  0  0  0  0  0  0
    1.2060    3.1580   -5.4800 C   0  0  0  0  0  0  0  0  0  0  0  0
    3.0770   -0.3690   -2.7670 C   0  0  0  0  0  0  0  0  0  0  0  0
    2.0290   -1.2890   -2.8160 C   0  0  0  0  0  0  0  0  0  0  0  0
    2.3030   -2.6570   -2.8370 C   0  0  0  0  0  0  0  0  0  0  0  0
    3.6230   -3.1050   -2.8090 C   0  0  0  0  0  0  0  0  0  0  0  0
    4.6710   -2.1850   -2.7600 C   0  0  0  0  0  0  0  0  0  0  0  0
    4.3970   -0.8170   -2.7390 C   0  0  0  0  0  0  0  0  0  0  0  0
    5.4870    0.0980   -2.6880 N   0  0  0  0  0  0  0  0  0  0  0  0
    5.9180    0.4630   -1.5700 O   0  0  0  0  0  0  0  0  0  0  0  0
    5.9810    0.5090   -3.7640 O   0  0  0  0  0  0  0  0  0  0  0  0
    3.9150   -4.5670   -2.8330 C   0  0  0  0  0  0  0  0  0  0  0  0
    2.7960   -5.3480   -2.8820 F   0  0  0  0  0  0  0  0  0  0  0  0
    4.6690   -4.9570   -3.9040 F   0  0  0  0  0  0  0  0  0  0  0  0
    4.6040   -4.9830   -1.7300 F   0  0  0  0  0  0  0  0  0  0  0  0
    0.6720   -0.8620   -2.8460 N   0  0  0  0  0  0  0  0  0  0  0  0
    0.1270   -0.6580   -3.9560 O   0  0  0  0  0  0  0  0  0  0  0  0
    0.0630   -0.7040   -1.7620 O   0  0  0  0  0  0  0  0  0  0  0  0
    0.0000    0.0000    0.0000 H   0  0  0  0  0  0  0  0  0  0  0  0
    0.0000    0.0000    0.0000 H   0  0  0  0  0  0  0  0  0  0  0  0
    0.0000    0.0000    0.0000 H   0  0  0  0  0  0  0  0  0  0  0  0
    0.0000    0.0000    0.0000 H   0  0  0  0  0  0  0  0  0  0  0  0
    0.0000    0.0000    0.0000 H   0  0  0  0  0  0  0  0  0  0  0  0
    0.0000    0.0000    0.0000 H   0  0  0  0  0  0  0  0  0  0  0  0
    0.0000    0.0000    0.0000 H   0  0  0  0  0  0  0  0  0  0  0  0
    0.0000    0.0000    0.0000 H   0  0  0  0  0  0  0  0  0  0  0  0
    0.0000    0.0000    0.0000 H   0  0  0  0  0  0  0  0  0  0  0  0
    0.0000    0.0000    0.0000 H   0  0  0  0  0  0  0  0  0  0  0  0
    0.0000    0.0000    0.0000 H   0  0  0  0  0  0  0  0  0  0  0  0
    0.0000    0.0000    0.0000 H   0  0  0  0  0  0  0  0  0  0  0  0
    0.0000    0.0000    0.0000 H   0  0  0  0  0  0  0  0  0  0  0  0
    0.0000    0.0000    0.0000 H   0  0  0  0  0  0  0  0  0  0  0  0
    0.0000    0.0000    0.0000 H   0  0  0  0  0  0  0  0  0  0  0  0
    0.0000    0.0000    0.0000 H   0  0  0  0  0  0  0  0  0  0  0  0
  1  2  1  0
  2  3  1  0
  3  4  1  0
  4  5  1  0
  5  6  1  0
  6  7  1  0
  4  8  1  0
  8 13  2  0
  8  9  1  0
  9 10  2  0
 10 11  1  0
 11 12  2  0
 12 13  1  0
 13 14  1  0
 14 15  1  0
 14 16  1  0
 11 17  1  0
 17 18  1  0
 17 19  1  0
 17 20  1  0
  9 21  1  0
 21 22  1  0
 21 23  1  0
  1 24  1  0
  1 25  1  0
  1 26  1  0
  2 27  1  0
  2 28  1  0
  3 29  1  0
  3 30  1  0
  5 31  1  0
  5 32  1  0
  6 33  1  0
  6 34  1  0
  7 35  1  0
  7 36  1  0
  7 37  1  0
 10 38  1  0
 12 39  1  0
M  CHG  4  15  -1  16  -1  22  -1  23  -1
M  END
>  <partial_charges>  (107) 
-0.090499997139
-0.109200000763
0.237700000405
-0.787100017071
0.237700000405
-0.109200000763
-0.090499997139
0.300500005484
-0.17460000515
-0.0159000009298
-0.1738999933
-0.0159000009298
-0.17460000515
0.318500012159
-0.178599998355
-0.178599998355
0.694800019264
-0.22460000217
-0.22460000217
-0.22460000217
0.318500012159
-0.178599998355
-0.178599998355
0.0381000004709
0.0381000004709
0.0381000004709
0.0533000007272
0.0533000007272
0.0531000010669
0.0531000010669
0.0531000010669
0.0531000010669
0.0533000007272
0.0533000007272
0.0381000004709
0.0381000004709
0.0381000004709
0.183599993587
0.183599993587

>  <partial_bond_orders>  (107) 
1.0
1.0
1.0
1.0
1.0
1.0
1.0
2.0
1.0
2.0
1.0
2.0
1.0
1.0
1.0
1.0
1.0
1.0
1.0
1.0
1.0
1.0
1.0
1.0
1.0
1.0
1.0
1.0
1.0
1.0
1.0
1.0
1.0
1.0
1.0
1.0
1.0
1.0
1.0

>  <atom_types>  (107) 
c3
c3
c3
nh
c3
c3
c3
ca
ca
ca
ca
ca
ca
no
o
o
c3
f
f
f
no
o
o
hc
hc
hc
hc
hc
h1
h1
h1
h1
hc
hc
hc
hc
hc
ha
ha

>  <target>  (107) 
-3.25

>  <cal>  (107) 
-2.023

$$$$
mobley_6081058
     RDKit          3D

 23 22  0  0  0  0  0  0  0  0999 V2000
   -0.4300    2.6130   -2.3860 C   0  0  0  0  0  0  0  0  0  0  0  0
    0.1770    2.2800   -1.0320 C   0  0  0  0  0  0  0  0  0  0  0  0
   -0.4550    1.0250   -0.4280 C   0  0  0  0  0  0  0  0  0  0  0  0
    0.1610    0.6960    0.9350 C   0  0  0  0  0  0  0  0  0  0  0  0
   -0.4350   -0.5550    1.5880 C   0  0  0  0  0  0  0  0  0  0  0  0
    0.1700   -0.8750    2.9250 C   0  0  0  0  0  0  0  0  0  0  0  0
   -0.5400   -0.9310    4.0580 C   0  0  0  0  0  0  0  0  0  0  0  0
    0.1450   -1.2660    5.3210 C   0  0  0  0  0  0  0  0  0  0  0  0
   -0.4550   -1.3310    6.3870 O   0  0  0  0  0  0  0  0  0  0  0  0
    0.0000    0.0000    0.0000 H   0  0  0  0  0  0  0  0  0  0  0  0
    0.0000    0.0000    0.0000 H   0  0  0  0  0  0  0  0  0  0  0  0
    0.0000    0.0000    0.0000 H   0  0  0  0  0  0  0  0  0  0  0  0
    0.0000    0.0000    0.0000 H   0  0  0  0  0  0  0  0  0  0  0  0
    0.0000    0.0000    0.0000 H   0  0  0  0  0  0  0  0  0  0  0  0
    0.0000    0.0000    0.0000 H   0  0  0  0  0  0  0  0  0  0  0  0
    0.0000    0.0000    0.0000 H   0  0  0  0  0  0  0  0  0  0  0  0
    0.0000    0.0000    0.0000 H   0  0  0  0  0  0  0  0  0  0  0  0
    0.0000    0.0000    0.0000 H   0  0  0  0  0  0  0  0  0  0  0  0
    0.0000    0.0000    0.0000 H   0  0  0  0  0  0  0  0  0  0  0  0
    0.0000    0.0000    0.0000 H   0  0  0  0  0  0  0  0  0  0  0  0
    0.0000    0.0000    0.0000 H   0  0  0  0  0  0  0  0  0  0  0  0
    0.0000    0.0000    0.0000 H   0  0  0  0  0  0  0  0  0  0  0  0
    0.0000    0.0000    0.0000 H   0  0  0  0  0  0  0  0  0  0  0  0
  1  2  1  0
  2  3  1  0
  3  4  1  0
  4  5  1  0
  5  6  1  0
  6  7  2  0
  7  8  1  0
  8  9  2  0
  1 10  1  0
  1 11  1  0
  1 12  1  0
  2 13  1  0
  2 14  1  0
  3 15  1  0
  3 16  1  0
  4 17  1  0
  4 18  1  0
  5 19  1  0
  5 20  1  0
  6 21  1  0
  7 22  1  0
  8 23  1  0
M  END
>  <partial_charges>  (108) 
-0.0925000011921
-0.0794999971986
-0.0816999971867
-0.0733999982476
-0.0649000033736
-0.0864999964833
-0.277200013399
0.558700025082
-0.5257999897
0.0344000011683
0.0344000011683
0.0344000011683
0.0379999987781
0.0379999987781
0.0430999994278
0.0430999994278
0.0430000014603
0.0430000014603
0.055300001055
0.055300001055
0.122699998319
0.148599997163
-0.0104000000283

>  <partial_bond_orders>  (108) 
1.0
1.0
1.0
1.0
1.0
2.0
1.0
2.0
1.0
1.0
1.0
1.0
1.0
1.0
1.0
1.0
1.0
1.0
1.0
1.0
1.0
1.0

>  <atom_types>  (108) 
c3
c3
c3
c3
c3
c2
ce
c
o
hc
hc
hc
hc
hc
hc
hc
hc
hc
hc
hc
ha
ha
h4

>  <target>  (108) 
-3.43

>  <cal>  (108) 
-2.706

$$$$
mobley_6359156
     RDKit          3D

 22 23  0  0  0  0  0  0  0  0999 V2000
    1.8850   -1.0360   -0.1120 C   0  0  0  0  0  0  0  0  0  0  0  0
    2.9210   -1.6310    0.6080 C   0  0  0  0  0  0  0  0  0  0  0  0
    2.8780   -1.6520    2.0020 C   0  0  0  0  0  0  0  0  0  0  0  0
    1.8000   -1.0790    2.6760 C   0  0  0  0  0  0  0  0  0  0  0  0
    0.7640   -0.4840    1.9550 C   0  0  0  0  0  0  0  0  0  0  0  0
    0.8070   -0.4630    0.5610 C   0  0  0  0  0  0  0  0  0  0  0  0
    1.7550   -1.1010    4.1220 C   0  0  0  0  0  0  0  0  0  0  0  0
    1.1410   -2.1870    4.7450 C   0  0  0  0  0  0  0  0  0  0  0  0
    1.0760   -2.2460    6.1380 C   0  0  0  0  0  0  0  0  0  0  0  0
    1.6260   -1.2200    6.9060 C   0  0  0  0  0  0  0  0  0  0  0  0
    2.2400   -0.1340    6.2820 C   0  0  0  0  0  0  0  0  0  0  0  0
    2.3040   -0.0740    4.8900 C   0  0  0  0  0  0  0  0  0  0  0  0
    3.0780    1.2960    4.1700 Cl  0  0  0  0  0  0  0  0  0  0  0  0
    0.3190   -3.5860    6.9090 Cl  0  0  0  0  0  0  0  0  0  0  0  0
    0.0000    0.0000    0.0000 H   0  0  0  0  0  0  0  0  0  0  0  0
    0.0000    0.0000    0.0000 H   0  0  0  0  0  0  0  0  0  0  0  0
    0.0000    0.0000    0.0000 H   0  0  0  0  0  0  0  0  0  0  0  0
    0.0000    0.0000    0.0000 H   0  0  0  0  0  0  0  0  0  0  0  0
    0.0000    0.0000    0.0000 H   0  0  0  0  0  0  0  0  0  0  0  0
    0.0000    0.0000    0.0000 H   0  0  0  0  0  0  0  0  0  0  0  0
    0.0000    0.0000    0.0000 H   0  0  0  0  0  0  0  0  0  0  0  0
    0.0000    0.0000    0.0000 H   0  0  0  0  0  0  0  0  0  0  0  0
  1  6  2  0
  1  2  1  0
  2  3  2  0
  3  4  1  0
  4  5  2  0
  5  6  1  0
  4  7  1  0
  7 12  1  0
  7  8  2  0
  8  9  1  0
  9 10  2  0
 10 11  1  0
 11 12  2  0
 12 13  1  0
  9 14  1  0
  1 15  1  0
  2 16  1  0
  3 17  1  0
  5 18  1  0
  6 19  1  0
  8 20  1  0
 10 21  1  0
 11 22  1  0
M  END
>  <partial_charges>  (109) 
-0.122699998319
-0.131300002337
-0.105999998748
-0.0535000003874
-0.105999998748
-0.131300002337
-0.0252000000328
-0.106200002134
0.0138999996707
-0.115800000727
-0.120099999011
0.0272000003606
-0.0776000022888
-0.0860000029206
0.131500005722
0.134200006723
0.139100000262
0.139100000262
0.134200006723
0.158299997449
0.151700004935
0.152500003576

>  <partial_bond_orders>  (109) 
2.0
1.0
2.0
1.0
2.0
1.0
1.0
2.0
1.0
2.0
1.0
2.0
1.0
1.0
1.0
1.0
1.0
1.0
1.0
1.0
1.0
1.0
1.0

>  <atom_types>  (109) 
ca
ca
ca
cp
ca
ca
cp
ca
ca
ca
ca
ca
cl
cl
ha
ha
ha
ha
ha
ha
ha
ha

>  <target>  (109) 
-2.46

>  <cal>  (109) 
-1.903

$$$$
mobley_2517158
     RDKit          3D

 23 22  0  0  0  0  0  0  0  0999 V2000
    0.6810   -1.9600    3.4750 C   0  0  0  0  0  0  0  0  0  0  0  0
    0.4720   -0.7320    2.6030 C   0  0  0  0  0  0  0  0  0  0  0  0
    0.1140   -1.0650    1.1530 C   0  0  0  0  0  0  0  0  0  0  0  0
   -0.0950    0.1740    0.2790 C   0  0  0  0  0  0  0  0  0  0  0  0
   -0.4500   -0.2150   -1.1580 C   0  0  0  0  0  0  0  0  0  0  0  0
   -0.6590    1.0250   -2.0330 C   0  0  0  0  0  0  0  0  0  0  0  0
   -1.0150    0.6870   -3.4720 C   0  0  0  0  0  0  0  0  0  0  0  0
   -1.2690    2.2980   -4.5360 Br  0  0  0  0  0  0  0  0  0  0  0  0
    0.0000    0.0000    0.0000 H   0  0  0  0  0  0  0  0  0  0  0  0
    0.0000    0.0000    0.0000 H   0  0  0  0  0  0  0  0  0  0  0  0
    0.0000    0.0000    0.0000 H   0  0  0  0  0  0  0  0  0  0  0  0
    0.0000    0.0000    0.0000 H   0  0  0  0  0  0  0  0  0  0  0  0
    0.0000    0.0000    0.0000 H   0  0  0  0  0  0  0  0  0  0  0  0
    0.0000    0.0000    0.0000 H   0  0  0  0  0  0  0  0  0  0  0  0
    0.0000    0.0000    0.0000 H   0  0  0  0  0  0  0  0  0  0  0  0
    0.0000    0.0000    0.0000 H   0  0  0  0  0  0  0  0  0  0  0  0
    0.0000    0.0000    0.0000 H   0  0  0  0  0  0  0  0  0  0  0  0
    0.0000    0.0000    0.0000 H   0  0  0  0  0  0  0  0  0  0  0  0
    0.0000    0.0000    0.0000 H   0  0  0  0  0  0  0  0  0  0  0  0
    0.0000    0.0000    0.0000 H   0  0  0  0  0  0  0  0  0  0  0  0
    0.0000    0.0000    0.0000 H   0  0  0  0  0  0  0  0  0  0  0  0
    0.0000    0.0000    0.0000 H   0  0  0  0  0  0  0  0  0  0  0  0
    0.0000    0.0000    0.0000 H   0  0  0  0  0  0  0  0  0  0  0  0
  1  2  1  0
  2  3  1  0
  3  4  1  0
  4  5  1  0
  5  6  1  0
  6  7  1  0
  7  8  1  0
  1  9  1  0
  1 10  1  0
  1 11  1  0
  2 12  1  0
  2 13  1  0
  3 14  1  0
  3 15  1  0
  4 16  1  0
  4 17  1  0
  5 18  1  0
  5 19  1  0
  6 20  1  0
  6 21  1  0
  7 22  1  0
  7 23  1  0
M  END
>  <partial_charges>  (110) 
-0.0920000001788
-0.0800999999046
-0.0780000016093
-0.0781999975443
-0.0793000012636
-0.0821999981999
-0.00899999961257
-0.178399994969
0.0335000008345
0.0335000008345
0.0335000008345
0.0383000001311
0.0383000001311
0.0394000001252
0.0394000001252
0.0410999991
0.0410999991
0.0414999984205
0.0414999984205
0.056099999696
0.056099999696
0.0719000026584
0.0719000026584

>  <partial_bond_orders>  (110) 
1.0
1.0
1.0
1.0
1.0
1.0
1.0
1.0
1.0
1.0
1.0
1.0
1.0
1.0
1.0
1.0
1.0
1.0
1.0
1.0
1.0
1.0

>  <atom_types>  (110) 
c3
c3
c3
c3
c3
c3
c3
br
hc
hc
hc
hc
hc
hc
hc
hc
hc
hc
hc
hc
hc
h1
h1

>  <target>  (110) 
0.34

>  <cal>  (110) 
1.223

$$$$
mobley_3686115
     RDKit          3D

 22 21  0  0  0  0  0  0  0  0999 V2000
   -2.2000    1.7780   -2.9580 C   0  0  0  0  0  0  0  0  0  0  0  0
   -0.9530    1.1290   -2.3960 C   0  0  0  0  0  0  0  0  0  0  0  0
   -1.1000   -0.2840   -2.4550 O   0  0  0  0  0  0  0  0  0  0  0  0
    0.0350   -0.9860   -1.9430 C   0  0  0  0  0  0  0  0  0  0  0  0
   -0.0330   -1.0090   -0.4210 C   0  0  0  0  0  0  0  0  0  0  0  0
    0.0390   -2.3520   -2.3770 O   0  0  0  0  0  0  0  0  0  0  0  0
    0.5280   -2.4930   -3.7050 C   0  0  0  0  0  0  0  0  0  0  0  0
    0.5000   -3.9580   -4.0850 C   0  0  0  0  0  0  0  0  0  0  0  0
    0.0000    0.0000    0.0000 H   0  0  0  0  0  0  0  0  0  0  0  0
    0.0000    0.0000    0.0000 H   0  0  0  0  0  0  0  0  0  0  0  0
    0.0000    0.0000    0.0000 H   0  0  0  0  0  0  0  0  0  0  0  0
    0.0000    0.0000    0.0000 H   0  0  0  0  0  0  0  0  0  0  0  0
    0.0000    0.0000    0.0000 H   0  0  0  0  0  0  0  0  0  0  0  0
    0.0000    0.0000    0.0000 H   0  0  0  0  0  0  0  0  0  0  0  0
    0.0000    0.0000    0.0000 H   0  0  0  0  0  0  0  0  0  0  0  0
    0.0000    0.0000    0.0000 H   0  0  0  0  0  0  0  0  0  0  0  0
    0.0000    0.0000    0.0000 H   0  0  0  0  0  0  0  0  0  0  0  0
    0.0000    0.0000    0.0000 H   0  0  0  0  0  0  0  0  0  0  0  0
    0.0000    0.0000    0.0000 H   0  0  0  0  0  0  0  0  0  0  0  0
    0.0000    0.0000    0.0000 H   0  0  0  0  0  0  0  0  0  0  0  0
    0.0000    0.0000    0.0000 H   0  0  0  0  0  0  0  0  0  0  0  0
    0.0000    0.0000    0.0000 H   0  0  0  0  0  0  0  0  0  0  0  0
  1  2  1  0
  2  3  1  0
  3  4  1  0
  4  5  1  0
  4  6  1  0
  6  7  1  0
  7  8  1  0
  1  9  1  0
  1 10  1  0
  1 11  1  0
  2 12  1  0
  2 13  1  0
  4 14  1  0
  5 15  1  0
  5 16  1  0
  5 17  1  0
  7 18  1  0
  7 19  1  0
  8 20  1  0
  8 21  1  0
  8 22  1  0
M  END
>  <partial_charges>  (111) 
-0.0966999977827
0.133000001311
-0.423900008202
0.332700014114
-0.114900000393
-0.423900008202
0.133000001311
-0.0966999977827
0.0454999990761
0.0454999990761
0.0454999990761
0.0244999993593
0.0244999993593
0.0296999998391
0.0522000007331
0.0522000007331
0.0522000007331
0.0244999993593
0.0244999993593
0.0454999990761
0.0454999990761
0.0454999990761

>  <partial_bond_orders>  (111) 
1.0
1.0
1.0
1.0
1.0
1.0
1.0
1.0
1.0
1.0
1.0
1.0
1.0
1.0
1.0
1.0
1.0
1.0
1.0
1.0
1.0

>  <atom_types>  (111) 
c3
c3
os
c3
c3
os
c3
c3
hc
hc
hc
h1
h1
h2
hc
hc
hc
h1
h1
hc
hc
hc

>  <target>  (111) 
-3.28

>  <cal>  (111) 
-1.795

$$$$
mobley_8798016
     RDKit          3D

 13 13  0  0  0  0  0  0  0  0999 V2000
    0.2270   -0.4200    0.9730 C   0  0  0  0  0  0  0  0  0  0  0  0
   -0.6320   -1.3220    1.5800 C   0  0  0  0  0  0  0  0  0  0  0  0
   -0.4090   -1.8820    2.7910 N   0  0  0  0  0  0  0  0  0  0  0  0
    0.7300   -1.5160    3.4210 C   0  0  0  0  0  0  0  0  0  0  0  0
    1.6520   -0.6230    2.9000 C   0  0  0  0  0  0  0  0  0  0  0  0
    1.3880   -0.0680    1.6520 C   0  0  0  0  0  0  0  0  0  0  0  0
    2.3220    0.8750    1.0600 C   0  0  0  0  0  0  0  0  0  0  0  0
    2.1430    1.4000   -0.0430 O   0  0  0  0  0  0  0  0  0  0  0  0
    0.0000    0.0000    0.0000 H   0  0  0  0  0  0  0  0  0  0  0  0
    0.0000    0.0000    0.0000 H   0  0  0  0  0  0  0  0  0  0  0  0
    0.0000    0.0000    0.0000 H   0  0  0  0  0  0  0  0  0  0  0  0
    0.0000    0.0000    0.0000 H   0  0  0  0  0  0  0  0  0  0  0  0
    0.0000    0.0000    0.0000 H   0  0  0  0  0  0  0  0  0  0  0  0
  1  6  2  0
  1  2  1  0
  2  3  2  0
  3  4  1  0
  4  5  2  0
  5  6  1  0
  6  7  1  0
  7  8  2  0
  1  9  1  0
  2 10  1  0
  4 11  1  0
  5 12  1  0
  7 13  1  0
M  END
>  <partial_charges>  (112) 
-0.198500007391
0.38299998641
-0.641900002956
0.38299998641
-0.198500007391
-0.158199995756
0.572499990463
-0.513499975204
0.155100002885
0.0284000001848
0.0284000001848
0.155100002885
0.00510000018403

>  <partial_bond_orders>  (112) 
2.0
1.0
2.0
1.0
2.0
1.0
1.0
2.0
1.0
1.0
1.0
1.0
1.0

>  <atom_types>  (112) 
ca
ca
nb
ca
ca
ca
c
o
ha
h4
h4
ha
h4

>  <target>  (112) 
-7.0

>  <cal>  (112) 
-7.338

$$$$
mobley_1235151
     RDKit          3D

 19 18  0  0  0  0  0  0  0  0999 V2000
    0.0740   -0.6780    0.8570 C   0  0  0  0  0  0  0  0  0  0  0  0
    1.3440   -0.4150    1.6510 C   0  0  0  0  0  0  0  0  0  0  0  0
    2.5930   -0.6240    0.7950 C   0  0  0  0  0  0  0  0  0  0  0  0
    3.8690   -0.3580    1.5970 C   0  0  0  0  0  0  0  0  0  0  0  0
    5.1080   -0.5680    0.7380 C   0  0  0  0  0  0  0  0  0  0  0  0
    6.3020   -0.3030    1.5450 N   0  0  0  0  0  0  0  0  0  0  0  0
    6.8110   -1.2550    2.1700 O   0  0  0  0  0  0  0  0  0  0  0  0
    6.7360    0.8650    1.5750 O   0  0  0  0  0  0  0  0  0  0  0  0
    0.0000    0.0000    0.0000 H   0  0  0  0  0  0  0  0  0  0  0  0
    0.0000    0.0000    0.0000 H   0  0  0  0  0  0  0  0  0  0  0  0
    0.0000    0.0000    0.0000 H   0  0  0  0  0  0  0  0  0  0  0  0
    0.0000    0.0000    0.0000 H   0  0  0  0  0  0  0  0  0  0  0  0
    0.0000    0.0000    0.0000 H   0  0  0  0  0  0  0  0  0  0  0  0
    0.0000    0.0000    0.0000 H   0  0  0  0  0  0  0  0  0  0  0  0
    0.0000    0.0000    0.0000 H   0  0  0  0  0  0  0  0  0  0  0  0
    0.0000    0.0000    0.0000 H   0  0  0  0  0  0  0  0  0  0  0  0
    0.0000    0.0000    0.0000 H   0  0  0  0  0  0  0  0  0  0  0  0
    0.0000    0.0000    0.0000 H   0  0  0  0  0  0  0  0  0  0  0  0
    0.0000    0.0000    0.0000 H   0  0  0  0  0  0  0  0  0  0  0  0
  1  2  1  0
  2  3  1  0
  3  4  1  0
  4  5  1  0
  5  6  1  0
  6  7  1  0
  6  8  1  0
  1  9  1  0
  1 10  1  0
  1 11  1  0
  2 12  1  0
  2 13  1  0
  3 14  1  0
  3 15  1  0
  4 16  1  0
  4 17  1  0
  5 18  1  0
  5 19  1  0
M  CHG  2   7  -1   8  -1
M  END
>  <partial_charges>  (113) 
-0.0936999991536
-0.0791999995708
-0.0784000009298
-0.0932999998331
-0.0758000016212
0.22840000689
-0.210500001907
-0.210500001907
0.0366999991238
0.0366999991238
0.0366999991238
0.0439999997616
0.0439999997616
0.0452999994159
0.0452999994159
0.0678000003099
0.0678000003099
0.0944000035524
0.0944000035524

>  <partial_bond_orders>  (113) 
1.0
1.0
1.0
1.0
1.0
1.0
1.0
1.0
1.0
1.0
1.0
1.0
1.0
1.0
1.0
1.0
1.0
1.0

>  <atom_types>  (113) 
c3
c3
c3
c3
c3
no
o
o
hc
hc
hc
hc
hc
hc
hc
hc
hc
h1
h1

>  <target>  (113) 
-2.82

>  <cal>  (113) 
-1.325

$$$$
mobley_7608435
     RDKit          3D

 29 28  0  0  0  0  0  0  0  0999 V2000
    0.7440    0.1620   -0.7800 C   0  0  0  0  0  0  0  0  0  0  0  0
    1.0050   -1.1130   -1.5650 C   0  0  0  0  0  0  0  0  0  0  0  0
    1.5220   -2.2320   -0.6610 C   0  0  0  0  0  0  0  0  0  0  0  0
    1.7830   -3.5130   -1.4540 C   0  0  0  0  0  0  0  0  0  0  0  0
    2.3010   -4.6320   -0.5490 C   0  0  0  0  0  0  0  0  0  0  0  0
    2.5620   -5.9150   -1.3450 C   0  0  0  0  0  0  0  0  0  0  0  0
    3.0810   -7.0530   -0.4670 C   0  0  0  0  0  0  0  0  0  0  0  0
    3.3440   -8.3280   -1.2370 C   0  0  0  0  0  0  0  0  0  0  0  0
    3.1720   -8.4730   -2.4390 O   0  0  0  0  0  0  0  0  0  0  0  0
    3.8320   -9.2710   -0.3780 O   0  0  0  0  0  0  0  0  0  0  0  0
    4.1600  -10.5330   -0.9700 C   0  0  0  0  0  0  0  0  0  0  0  0
    0.0000    0.0000    0.0000 H   0  0  0  0  0  0  0  0  0  0  0  0
    0.0000    0.0000    0.0000 H   0  0  0  0  0  0  0  0  0  0  0  0
    0.0000    0.0000    0.0000 H   0  0  0  0  0  0  0  0  0  0  0  0
    0.0000    0.0000    0.0000 H   0  0  0  0  0  0  0  0  0  0  0  0
    0.0000    0.0000    0.0000 H   0  0  0  0  0  0  0  0  0  0  0  0
    0.0000    0.0000    0.0000 H   0  0  0  0  0  0  0  0  0  0  0  0
    0.0000    0.0000    0.0000 H   0  0  0  0  0  0  0  0  0  0  0  0
    0.0000    0.0000    0.0000 H   0  0  0  0  0  0  0  0  0  0  0  0
    0.0000    0.0000    0.0000 H   0  0  0  0  0  0  0  0  0  0  0  0
    0.0000    0.0000    0.0000 H   0  0  0  0  0  0  0  0  0  0  0  0
    0.0000    0.0000    0.0000 H   0  0  0  0  0  0  0  0  0  0  0  0
    0.0000    0.0000    0.0000 H   0  0  0  0  0  0  0  0  0  0  0  0
    0.0000    0.0000    0.0000 H   0  0  0  0  0  0  0  0  0  0  0  0
    0.0000    0.0000    0.0000 H   0  0  0  0  0  0  0  0  0  0  0  0
    0.0000    0.0000    0.0000 H   0  0  0  0  0  0  0  0  0  0  0  0
    0.0000    0.0000    0.0000 H   0  0  0  0  0  0  0  0  0  0  0  0
    0.0000    0.0000    0.0000 H   0  0  0  0  0  0  0  0  0  0  0  0
    0.0000    0.0000    0.0000 H   0  0  0  0  0  0  0  0  0  0  0  0
  1  2  1  0
  2  3  1  0
  3  4  1  0
  4  5  1  0
  5  6  1  0
  6  7  1  0
  7  8  1  0
  8  9  2  0
  8 10  1  0
 10 11  1  0
  1 12  1  0
  1 13  1  0
  1 14  1  0
  2 15  1  0
  2 16  1  0
  3 17  1  0
  3 18  1  0
  4 19  1  0
  4 20  1  0
  5 21  1  0
  5 22  1  0
  6 23  1  0
  6 24  1  0
  7 25  1  0
  7 26  1  0
 11 27  1  0
 11 28  1  0
 11 29  1  0
M  END
>  <partial_charges>  (114) 
-0.0923999994993
-0.0803999975324
-0.082800000906
-0.0795999988914
-0.0781000033021
-0.0776000022888
-0.126200005412
0.628199994564
-0.542299985886
-0.442999988794
0.126000002027
0.0335000008345
0.0335000008345
0.0335000008345
0.0375999994576
0.0375999994576
0.0425999984145
0.0425999984145
0.0392999984324
0.0392999984324
0.0427000001073
0.0427000001073
0.0566000007093
0.0566000007093
0.0803999975324
0.0803999975324
0.0498000010848
0.0498000010848
0.0498000010848

>  <partial_bond_orders>  (114) 
1.0
1.0
1.0
1.0
1.0
1.0
1.0
2.0
1.0
1.0
1.0
1.0
1.0
1.0
1.0
1.0
1.0
1.0
1.0
1.0
1.0
1.0
1.0
1.0
1.0
1.0
1.0
1.0

>  <atom_types>  (114) 
c3
c3
c3
c3
c3
c3
c3
c
o
os
c3
hc
hc
hc
hc
hc
hc
hc
hc
hc
hc
hc
hc
hc
hc
hc
h1
h1
h1

>  <target>  (114) 
-2.04

>  <cal>  (114) 
-3.035

$$$$
mobley_2371092
     RDKit          3D

 17 17  0  0  0  0  0  0  0  0999 V2000
    2.3330    0.9030    1.0250 C   0  0  0  0  0  0  0  0  0  0  0  0
    1.3880   -0.0680    1.6520 C   0  0  0  0  0  0  0  0  0  0  0  0
    0.2270   -0.4200    0.9730 C   0  0  0  0  0  0  0  0  0  0  0  0
   -0.6320   -1.3220    1.5800 C   0  0  0  0  0  0  0  0  0  0  0  0
   -0.4090   -1.8820    2.7910 N   0  0  0  0  0  0  0  0  0  0  0  0
    0.7300   -1.5160    3.4210 C   0  0  0  0  0  0  0  0  0  0  0  0
    1.6520   -0.6230    2.9000 C   0  0  0  0  0  0  0  0  0  0  0  0
    2.8800   -0.2800    3.6700 C   0  0  0  0  0  0  0  0  0  0  0  0
    0.0000    0.0000    0.0000 H   0  0  0  0  0  0  0  0  0  0  0  0
    0.0000    0.0000    0.0000 H   0  0  0  0  0  0  0  0  0  0  0  0
    0.0000    0.0000    0.0000 H   0  0  0  0  0  0  0  0  0  0  0  0
    0.0000    0.0000    0.0000 H   0  0  0  0  0  0  0  0  0  0  0  0
    0.0000    0.0000    0.0000 H   0  0  0  0  0  0  0  0  0  0  0  0
    0.0000    0.0000    0.0000 H   0  0  0  0  0  0  0  0  0  0  0  0
    0.0000    0.0000    0.0000 H   0  0  0  0  0  0  0  0  0  0  0  0
    0.0000    0.0000    0.0000 H   0  0  0  0  0  0  0  0  0  0  0  0
    0.0000    0.0000    0.0000 H   0  0  0  0  0  0  0  0  0  0  0  0
  1  2  1  0
  2  7  2  0
  2  3  1  0
  3  4  2  0
  4  5  1  0
  5  6  2  0
  6  7  1  0
  7  8  1  0
  1  9  1  0
  1 10  1  0
  1 11  1  0
  3 12  1  0
  4 13  1  0
  6 14  1  0
  8 15  1  0
  8 16  1  0
  8 17  1  0
M  END
>  <partial_charges>  (115) 
-0.0621000006795
-0.0384000018239
-0.245299994946
0.39050000906
-0.666400015354
0.394199997187
-0.192300006747
-0.0491000004113
0.0493000000715
0.0493000000715
0.0493000000715
0.141800001264
0.0208000000566
0.0197999998927
0.0463000014424
0.0463000014424
0.0463000014424

>  <partial_bond_orders>  (115) 
1.0
2.0
1.0
2.0
1.0
2.0
1.0
1.0
1.0
1.0
1.0
1.0
1.0
1.0
1.0
1.0
1.0

>  <atom_types>  (115) 
c3
ca
ca
ca
nb
ca
ca
c3
hc
hc
hc
ha
h4
h4
hc
hc
hc

>  <target>  (115) 
-5.22

>  <cal>  (115) 
-3.201

$$$$
mobley_9821936
     RDKit          3D

 22 24  0  0  0  0  0  0  0  0999 V2000
   -2.7270   -1.9050    0.6890 C   0  0  0  0  0  0  0  0  0  0  0  0
   -3.5800   -0.9100    1.1630 C   0  0  0  0  0  0  0  0  0  0  0  0
   -3.1490    0.4150    1.2200 C   0  0  0  0  0  0  0  0  0  0  0  0
   -1.8580    0.7400    0.8000 C   0  0  0  0  0  0  0  0  0  0  0  0
   -1.0040   -0.2570    0.3260 C   0  0  0  0  0  0  0  0  0  0  0  0
   -1.4370   -1.5820    0.2690 C   0  0  0  0  0  0  0  0  0  0  0  0
   -0.4030   -2.8500   -0.3160 Cl  0  0  0  0  0  0  0  0  0  0  0  0
    0.6080    0.1470   -0.1990 Cl  0  0  0  0  0  0  0  0  0  0  0  0
   -1.3190    2.3950    0.8710 Cl  0  0  0  0  0  0  0  0  0  0  0  0
   -4.2410    1.6280    1.8160 Cl  0  0  0  0  0  0  0  0  0  0  0  0
   -4.8560   -1.1830    1.5850 O   0  0  0  0  0  0  0  0  0  0  0  0
   -5.2390   -2.4980    1.5120 C   0  0  0  0  0  0  0  0  0  0  0  0
   -4.3860   -3.4940    1.0380 C   0  0  0  0  0  0  0  0  0  0  0  0
   -4.8170   -4.8180    0.9820 C   0  0  0  0  0  0  0  0  0  0  0  0
   -6.1070   -5.1430    1.4010 C   0  0  0  0  0  0  0  0  0  0  0  0
   -6.9620   -4.1460    1.8750 C   0  0  0  0  0  0  0  0  0  0  0  0
   -6.5290   -2.8210    1.9320 C   0  0  0  0  0  0  0  0  0  0  0  0
   -7.5640   -1.5530    2.5160 Cl  0  0  0  0  0  0  0  0  0  0  0  0
   -8.5730   -4.5510    2.4000 Cl  0  0  0  0  0  0  0  0  0  0  0  0
   -6.6460   -6.7990    1.3300 Cl  0  0  0  0  0  0  0  0  0  0  0  0
   -3.7240   -6.0320    0.3850 Cl  0  0  0  0  0  0  0  0  0  0  0  0
   -3.1090   -3.2200    0.6160 O   0  0  0  0  0  0  0  0  0  0  0  0
  1  6  2  0
  1 22  1  0
  1  2  1  0
  2  3  2  0
  3  4  1  0
  4  5  2  0
  5  6  1  0
  6  7  1  0
  5  8  1  0
  4  9  1  0
  3 10  1  0
  2 11  1  0
 11 12  1  0
 12 17  2  0
 12 13  1  0
 13 14  2  0
 14 15  1  0
 15 16  2  0
 16 17  1  0
 17 18  1  0
 16 19  1  0
 15 20  1  0
 14 21  1  0
 13 22  1  0
M  END
>  <partial_charges>  (116) 
0.0793000012636
0.0794000029564
0.0322999991477
0.0219999998808
0.0219999998808
0.0322999991477
-0.0143999997526
-0.0248000007123
-0.0248000007123
-0.0143999997526
-0.188800007105
0.0794000029564
0.0794000029564
0.0322999991477
0.0219999998808
0.0219999998808
0.0322999991477
-0.0143999997526
-0.0248000007123
-0.0248000007123
-0.0143999997526
-0.188800007105

>  <partial_bond_orders>  (116) 
2.0
1.0
1.0
2.0
1.0
2.0
1.0
1.0
1.0
1.0
1.0
1.0
1.0
2.0
1.0
2.0
1.0
2.0
1.0
1.0
1.0
1.0
1.0
1.0

>  <atom_types>  (116) 
ca
ca
ca
ca
ca
ca
cl
cl
cl
cl
os
ca
ca
ca
ca
ca
ca
cl
cl
cl
cl
os

>  <target>  (116) 
-4.53

>  <cal>  (116) 
-1.147

$$$$
mobley_4678740
     RDKit          3D

 18 18  0  0  0  0  0  0  0  0999 V2000
    1.8850   -1.0360   -0.1120 C   0  0  0  0  0  0  0  0  0  0  0  0
    2.9210   -1.6310    0.6080 C   0  0  0  0  0  0  0  0  0  0  0  0
    2.8780   -1.6520    2.0020 C   0  0  0  0  0  0  0  0  0  0  0  0
    1.8000   -1.0790    2.6760 C   0  0  0  0  0  0  0  0  0  0  0  0
    0.7640   -0.4840    1.9550 C   0  0  0  0  0  0  0  0  0  0  0  0
    0.8070   -0.4630    0.5610 C   0  0  0  0  0  0  0  0  0  0  0  0
   -0.3910    0.1280    2.6740 C   0  0  0  0  0  0  0  0  0  0  0  0
   -0.3010    0.0330    4.0340 F   0  0  0  0  0  0  0  0  0  0  0  0
   -0.5490    1.4600    2.4200 F   0  0  0  0  0  0  0  0  0  0  0  0
   -1.5810   -0.4520    2.3450 F   0  0  0  0  0  0  0  0  0  0  0  0
    3.9860   -2.2870    2.7730 C   0  0  0  0  0  0  0  0  0  0  0  0
    4.9740   -2.8060    1.9840 F   0  0  0  0  0  0  0  0  0  0  0  0
    4.6230   -1.4290    3.6230 F   0  0  0  0  0  0  0  0  0  0  0  0
    3.5580   -3.3230    3.5520 F   0  0  0  0  0  0  0  0  0  0  0  0
    0.0000    0.0000    0.0000 H   0  0  0  0  0  0  0  0  0  0  0  0
    0.0000    0.0000    0.0000 H   0  0  0  0  0  0  0  0  0  0  0  0
    0.0000    0.0000    0.0000 H   0  0  0  0  0  0  0  0  0  0  0  0
    0.0000    0.0000    0.0000 H   0  0  0  0  0  0  0  0  0  0  0  0
  1  6  2  0
  1  2  1  0
  2  3  2  0
  3  4  1  0
  4  5  2  0
  5  6  1  0
  5  7  1  0
  7  8  1  0
  7  9  1  0
  7 10  1  0
  3 11  1  0
 11 12  1  0
 11 13  1  0
 11 14  1  0
  1 15  1  0
  2 16  1  0
  4 17  1  0
  6 18  1  0
M  END
>  <partial_charges>  (117) 
-0.137999996543
-0.0533000007272
-0.174199998379
-0.035300001502
-0.174199998379
-0.0533000007272
0.689599990845
-0.23219999671
-0.23219999671
-0.23219999671
0.689599990845
-0.23219999671
-0.23219999671
-0.23219999671
0.15340000391
0.159299999475
0.170499995351
0.159299999475

>  <partial_bond_orders>  (117) 
2.0
1.0
2.0
1.0
2.0
1.0
1.0
1.0
1.0
1.0
1.0
1.0
1.0
1.0
1.0
1.0
1.0
1.0

>  <atom_types>  (117) 
ca
ca
ca
ca
ca
ca
c3
f
f
f
c3
f
f
f
ha
ha
ha
ha

>  <target>  (117) 
1.07

>  <cal>  (117) 
-0.34

$$$$
mobley_7326982
     RDKit          3D

 12 11  0  0  0  0  0  0  0  0999 V2000
    1.0770    0.0500    0.1960 C   0  0  0  0  0  0  0  0  0  0  0  0
    1.3530    0.9190    1.4130 C   0  0  0  0  0  0  0  0  0  0  0  0
    2.8430    1.0380    1.6980 C   0  0  0  0  0  0  0  0  0  0  0  0
    0.8120    2.2180    1.1940 O   0  0  0  0  0  0  0  0  0  0  0  0
    0.0000    0.0000    0.0000 H   0  0  0  0  0  0  0  0  0  0  0  0
    0.0000    0.0000    0.0000 H   0  0  0  0  0  0  0  0  0  0  0  0
    0.0000    0.0000    0.0000 H   0  0  0  0  0  0  0  0  0  0  0  0
    0.0000    0.0000    0.0000 H   0  0  0  0  0  0  0  0  0  0  0  0
    0.0000    0.0000    0.0000 H   0  0  0  0  0  0  0  0  0  0  0  0
    0.0000    0.0000    0.0000 H   0  0  0  0  0  0  0  0  0  0  0  0
    0.0000    0.0000    0.0000 H   0  0  0  0  0  0  0  0  0  0  0  0
    0.0000    0.0000    0.0000 H   0  0  0  0  0  0  0  0  0  0  0  0
  1  2  1  0
  2  3  1  0
  2  4  1  0
  1  5  1  0
  1  6  1  0
  1  7  1  0
  2  8  1  0
  3  9  1  0
  3 10  1  0
  3 11  1  0
  4 12  1  0
M  END
>  <partial_charges>  (118) 
-0.111100003123
0.138300001621
-0.111100003123
-0.601599991322
0.043299999088
0.043299999088
0.043299999088
0.0284000001848
0.043299999088
0.043299999088
0.043299999088
0.397100001574

>  <partial_bond_orders>  (118) 
1.0
1.0
1.0
1.0
1.0
1.0
1.0
1.0
1.0
1.0
1.0

>  <atom_types>  (118) 
c3
c3
c3
oh
hc
hc
hc
h1
hc
hc
hc
ho

>  <target>  (118) 
-4.74

>  <cal>  (118) 
-3.427

$$$$
mobley_6359135
     RDKit          3D

  5  4  0  0  0  0  0  0  0  0999 V2000
    0.0000   -0.0000   -0.0000 C   0  0  0  0  0  0  0  0  0  0  0  0
    0.7280   -1.3010    0.9750 Cl  0  0  0  0  0  0  0  0  0  0  0  0
   -1.4700   -0.6100   -0.8020 Cl  0  0  0  0  0  0  0  0  0  0  0  0
   -0.4260    1.3680    1.0590 Cl  0  0  0  0  0  0  0  0  0  0  0  0
    1.1670    0.5430   -1.2320 Cl  0  0  0  0  0  0  0  0  0  0  0  0
  1  2  1  0
  1  3  1  0
  1  4  1  0
  1  5  1  0
M  END
>  <partial_charges>  (119) 
0.324299991131
-0.0811000019312
-0.0811000019312
-0.0811000019312
-0.0811000019312

>  <partial_bond_orders>  (119) 
1.0
1.0
1.0
1.0

>  <atom_types>  (119) 
c3
cl
cl
cl
cl

>  <target>  (119) 
0.08

>  <cal>  (119) 
1.185

$$$$
mobley_172879
     RDKit          3D

 22 24  0  0  0  0  0  0  0  0999 V2000
   -1.8580    0.7400    0.8000 C   0  0  0  0  0  0  0  0  0  0  0  0
   -1.0040   -0.2570    0.3260 C   0  0  0  0  0  0  0  0  0  0  0  0
   -1.4370   -1.5820    0.2690 C   0  0  0  0  0  0  0  0  0  0  0  0
   -2.7270   -1.9050    0.6890 C   0  0  0  0  0  0  0  0  0  0  0  0
   -3.5800   -0.9100    1.1630 C   0  0  0  0  0  0  0  0  0  0  0  0
   -3.1490    0.4150    1.2200 C   0  0  0  0  0  0  0  0  0  0  0  0
   -4.8560   -1.1830    1.5850 O   0  0  0  0  0  0  0  0  0  0  0  0
   -5.2390   -2.4980    1.5120 C   0  0  0  0  0  0  0  0  0  0  0  0
   -6.5290   -2.8210    1.9320 C   0  0  0  0  0  0  0  0  0  0  0  0
   -6.9620   -4.1460    1.8750 C   0  0  0  0  0  0  0  0  0  0  0  0
   -6.1070   -5.1430    1.4010 C   0  0  0  0  0  0  0  0  0  0  0  0
   -4.8170   -4.8180    0.9820 C   0  0  0  0  0  0  0  0  0  0  0  0
   -4.3860   -3.4940    1.0380 C   0  0  0  0  0  0  0  0  0  0  0  0
   -3.1090   -3.2200    0.6160 O   0  0  0  0  0  0  0  0  0  0  0  0
    0.0000    0.0000    0.0000 H   0  0  0  0  0  0  0  0  0  0  0  0
    0.0000    0.0000    0.0000 H   0  0  0  0  0  0  0  0  0  0  0  0
    0.0000    0.0000    0.0000 H   0  0  0  0  0  0  0  0  0  0  0  0
    0.0000    0.0000    0.0000 H   0  0  0  0  0  0  0  0  0  0  0  0
    0.0000    0.0000    0.0000 H   0  0  0  0  0  0  0  0  0  0  0  0
    0.0000    0.0000    0.0000 H   0  0  0  0  0  0  0  0  0  0  0  0
    0.0000    0.0000    0.0000 H   0  0  0  0  0  0  0  0  0  0  0  0
    0.0000    0.0000    0.0000 H   0  0  0  0  0  0  0  0  0  0  0  0
  1  6  2  0
  1  2  1  0
  2  3  2  0
  3  4  1  0
  4 14  1  0
  4  5  2  0
  5  6  1  0
  5  7  1  0
  7  8  1  0
  8 13  2  0
  8  9  1  0
  9 10  2  0
 10 11  1  0
 11 12  2  0
 12 13  1  0
 13 14  1  0
  1 15  1  0
  2 16  1  0
  3 17  1  0
  6 18  1  0
  9 19  1  0
 10 20  1  0
 11 21  1  0
 12 22  1  0
M  END
>  <partial_charges>  (120) 
-0.127900004387
-0.127700001001
-0.116599999368
0.0628999993205
0.0628999993205
-0.116599999368
-0.225099995732
0.0628999993205
-0.116599999368
-0.127700001001
-0.127700001001
-0.116599999368
0.0628999993205
-0.225099995732
0.139200001955
0.139200001955
0.154799997807
0.154799997807
0.154799997807
0.139200001955
0.139200001955
0.154799997807

>  <partial_bond_orders>  (120) 
2.0
1.0
2.0
1.0
1.0
2.0
1.0
1.0
1.0
2.0
1.0
2.0
1.0
2.0
1.0
1.0
1.0
1.0
1.0
1.0
1.0
1.0
1.0
1.0

>  <atom_types>  (120) 
ca
ca
ca
ca
ca
ca
os
ca
ca
ca
ca
ca
ca
os
ha
ha
ha
ha
ha
ha
ha
ha

>  <target>  (120) 
-3.15

>  <cal>  (120) 
-4.9

$$$$
mobley_9626434
     RDKit          3D

 16 15  0  0  0  0  0  0  0  0999 V2000
   -2.0380    0.0800    3.9170 C   0  0  0  0  0  0  0  0  0  0  0  0
   -2.1480    0.3170    2.4250 C   0  0  0  0  0  0  0  0  0  0  0  0
   -0.8530    0.2360    1.8470 O   0  0  0  0  0  0  0  0  0  0  0  0
   -0.8940    0.4510    0.4420 C   0  0  0  0  0  0  0  0  0  0  0  0
    0.5140    0.3530   -0.1150 C   0  0  0  0  0  0  0  0  0  0  0  0
    1.3270    1.3430    0.5020 O   0  0  0  0  0  0  0  0  0  0  0  0
    0.0000    0.0000    0.0000 H   0  0  0  0  0  0  0  0  0  0  0  0
    0.0000    0.0000    0.0000 H   0  0  0  0  0  0  0  0  0  0  0  0
    0.0000    0.0000    0.0000 H   0  0  0  0  0  0  0  0  0  0  0  0
    0.0000    0.0000    0.0000 H   0  0  0  0  0  0  0  0  0  0  0  0
    0.0000    0.0000    0.0000 H   0  0  0  0  0  0  0  0  0  0  0  0
    0.0000    0.0000    0.0000 H   0  0  0  0  0  0  0  0  0  0  0  0
    0.0000    0.0000    0.0000 H   0  0  0  0  0  0  0  0  0  0  0  0
    0.0000    0.0000    0.0000 H   0  0  0  0  0  0  0  0  0  0  0  0
    0.0000    0.0000    0.0000 H   0  0  0  0  0  0  0  0  0  0  0  0
    0.0000    0.0000    0.0000 H   0  0  0  0  0  0  0  0  0  0  0  0
  1  2  1  0
  2  3  1  0
  3  4  1  0
  4  5  1  0
  5  6  1  0
  1  7  1  0
  1  8  1  0
  1  9  1  0
  2 10  1  0
  2 11  1  0
  4 12  1  0
  4 13  1  0
  5 14  1  0
  5 15  1  0
  6 16  1  0
M  END
>  <partial_charges>  (121) 
-0.096400000155
0.129899993539
-0.422399997711
0.119999997318
0.130799993873
-0.598200023174
0.0449000000954
0.0449000000954
0.0449000000954
0.0230000000447
0.0230000000447
0.0386000014842
0.0386000014842
0.0379000008106
0.0379000008106
0.402900010347

>  <partial_bond_orders>  (121) 
1.0
1.0
1.0
1.0
1.0
1.0
1.0
1.0
1.0
1.0
1.0
1.0
1.0
1.0
1.0

>  <atom_types>  (121) 
c3
c3
os
c3
c3
oh
hc
hc
hc
h1
h1
h1
h1
h1
h1
ho

>  <target>  (121) 
-6.69

>  <cal>  (121) 
-4.407

$$$$
mobley_4983965
     RDKit          3D

 15 14  0  0  0  0  0  0  0  0999 V2000
    0.5030   -0.3030    1.1380 C   0  0  0  0  0  0  0  0  0  0  0  0
    1.8520   -0.8680    0.7340 C   0  0  0  0  0  0  0  0  0  0  0  0
    2.9260    0.4450    0.0920 S   0  0  0  0  0  0  0  0  0  0  0  0
    4.3830   -0.5610   -0.2730 C   0  0  0  0  0  0  0  0  0  0  0  0
    5.4980    0.2960   -0.8480 C   0  0  0  0  0  0  0  0  0  0  0  0
    0.0000    0.0000    0.0000 H   0  0  0  0  0  0  0  0  0  0  0  0
    0.0000    0.0000    0.0000 H   0  0  0  0  0  0  0  0  0  0  0  0
    0.0000    0.0000    0.0000 H   0  0  0  0  0  0  0  0  0  0  0  0
    0.0000    0.0000    0.0000 H   0  0  0  0  0  0  0  0  0  0  0  0
    0.0000    0.0000    0.0000 H   0  0  0  0  0  0  0  0  0  0  0  0
    0.0000    0.0000    0.0000 H   0  0  0  0  0  0  0  0  0  0  0  0
    0.0000    0.0000    0.0000 H   0  0  0  0  0  0  0  0  0  0  0  0
    0.0000    0.0000    0.0000 H   0  0  0  0  0  0  0  0  0  0  0  0
    0.0000    0.0000    0.0000 H   0  0  0  0  0  0  0  0  0  0  0  0
    0.0000    0.0000    0.0000 H   0  0  0  0  0  0  0  0  0  0  0  0
  1  2  1  0
  2  3  1  0
  3  4  1  0
  4  5  1  0
  1  6  1  0
  1  7  1  0
  1  8  1  0
  2  9  1  0
  2 10  1  0
  4 11  1  0
  4 12  1  0
  5 13  1  0
  5 14  1  0
  5 15  1  0
M  END
>  <partial_charges>  (122) 
-0.0834999978542
-0.00769999995828
-0.312400013208
-0.00769999995828
-0.0834999978542
0.0456000007689
0.0456000007689
0.0456000007689
0.055300001055
0.055300001055
0.055300001055
0.055300001055
0.0456000007689
0.0456000007689
0.0456000007689

>  <partial_bond_orders>  (122) 
1.0
1.0
1.0
1.0
1.0
1.0
1.0
1.0
1.0
1.0
1.0
1.0
1.0
1.0

>  <atom_types>  (122) 
c3
c3
ss
c3
c3
hc
hc
hc
h1
h1
h1
h1
hc
hc
hc

>  <target>  (122) 
-1.46

>  <cal>  (122) 
0.299

$$$$
mobley_2493732
     RDKit          3D

  6  5  0  0  0  0  0  0  0  0999 V2000
   -0.9590    0.0620   -0.5380 C   0  0  0  0  0  0  0  0  0  0  0  0
   -1.7400   -1.0200   -0.7610 C   0  0  0  0  0  0  0  0  0  0  0  0
   -1.2830   -2.5970   -0.2100 Cl  0  0  0  0  0  0  0  0  0  0  0  0
   -3.2440   -0.8920   -1.6120 Cl  0  0  0  0  0  0  0  0  0  0  0  0
    0.0000    0.0000    0.0000 H   0  0  0  0  0  0  0  0  0  0  0  0
    0.0000    0.0000    0.0000 H   0  0  0  0  0  0  0  0  0  0  0  0
  1  2  2  3
  2  3  1  0
  2  4  1  0
  1  5  1  0
  1  6  1  0
M  END
>  <partial_charges>  (123) 
-0.206699997187
0.0755999982357
-0.0766000002623
-0.0766000002623
0.142199993134
0.142199993134

>  <partial_bond_orders>  (123) 
2.0
1.0
1.0
1.0
1.0

>  <atom_types>  (123) 
c2
c2
cl
cl
ha
ha

>  <target>  (123) 
0.25

>  <cal>  (123) 
1.108

$$$$
mobley_3264884
     RDKit          3D

 20 21  0  0  0  0  0  0  0  0999 V2000
   -0.4970   -2.0340    0.4940 C   0  0  0  0  0  0  0  0  0  0  0  0
    0.3500   -1.0280    0.0390 C   0  0  0  0  0  0  0  0  0  0  0  0
    1.6480   -1.3370   -0.3660 C   0  0  0  0  0  0  0  0  0  0  0  0
    2.1170   -2.6600   -0.3220 C   0  0  0  0  0  0  0  0  0  0  0  0
    3.4210   -2.9900   -0.7270 C   0  0  0  0  0  0  0  0  0  0  0  0
    3.8690   -4.3100   -0.6760 C   0  0  0  0  0  0  0  0  0  0  0  0
    3.0230   -5.3170   -0.2210 C   0  0  0  0  0  0  0  0  0  0  0  0
    1.7240   -5.0070    0.1850 C   0  0  0  0  0  0  0  0  0  0  0  0
    1.2560   -3.6840    0.1400 C   0  0  0  0  0  0  0  0  0  0  0  0
   -0.0480   -3.3540    0.5450 C   0  0  0  0  0  0  0  0  0  0  0  0
    5.1820   -4.6240   -1.0850 N   0  0  0  0  0  0  0  0  0  0  0  0
    0.0000    0.0000    0.0000 H   0  0  0  0  0  0  0  0  0  0  0  0
    0.0000    0.0000    0.0000 H   0  0  0  0  0  0  0  0  0  0  0  0
    0.0000    0.0000    0.0000 H   0  0  0  0  0  0  0  0  0  0  0  0
    0.0000    0.0000    0.0000 H   0  0  0  0  0  0  0  0  0  0  0  0
    0.0000    0.0000    0.0000 H   0  0  0  0  0  0  0  0  0  0  0  0
    0.0000    0.0000    0.0000 H   0  0  0  0  0  0  0  0  0  0  0  0
    0.0000    0.0000    0.0000 H   0  0  0  0  0  0  0  0  0  0  0  0
    0.0000    0.0000    0.0000 H   0  0  0  0  0  0  0  0  0  0  0  0
    0.0000    0.0000    0.0000 H   0  0  0  0  0  0  0  0  0  0  0  0
  1 10  2  0
  1  2  1  0
  2  3  2  0
  3  4  1  0
  4  9  2  0
  4  5  1  0
  5  6  2  0
  6  7  1  0
  7  8  2  0
  8  9  1  0
  9 10  1  0
  6 11  1  0
  1 12  1  0
  2 13  1  0
  3 14  1  0
  5 15  1  0
  7 16  1  0
  8 17  1  0
 10 18  1  0
 11 19  1  0
 11 20  1  0
M  END
>  <partial_charges>  (124) 
-0.143399998546
-0.116999998689
-0.130799993873
0.00359999993816
-0.2011000067
0.142100006342
-0.166899994016
-0.0856000036001
-0.0709000006318
-0.10490000248
-0.820900022984
0.129700005054
0.130999997258
0.129999995232
0.132300004363
0.132300004363
0.131899997592
0.129199996591
0.389800012112
0.389800012112

>  <partial_bond_orders>  (124) 
2.0
1.0
2.0
1.0
2.0
1.0
2.0
1.0
2.0
1.0
1.0
1.0
1.0
1.0
1.0
1.0
1.0
1.0
1.0
1.0
1.0

>  <atom_types>  (124) 
ca
ca
ca
ca
ca
ca
ca
ca
ca
ca
nh
ha
ha
ha
ha
ha
ha
ha
hn
hn

>  <target>  (124) 
-7.47

>  <cal>  (124) 
-8.003

$$$$
mobley_4690963
     RDKit          3D

 22 21  0  0  0  0  0  0  0  0999 V2000
    0.2900    0.5590    3.9220 C   0  0  0  0  0  0  0  0  0  0  0  0
    0.3040    0.8200    2.4300 C   0  0  0  0  0  0  0  0  0  0  0  0
   -0.8530    0.2360    1.8470 O   0  0  0  0  0  0  0  0  0  0  0  0
   -0.8940    0.4510    0.4420 C   0  0  0  0  0  0  0  0  0  0  0  0
   -2.1460   -0.1940   -0.1210 C   0  0  0  0  0  0  0  0  0  0  0  0
   -2.1150   -1.5890    0.1550 O   0  0  0  0  0  0  0  0  0  0  0  0
   -3.2680   -2.2460   -0.3510 C   0  0  0  0  0  0  0  0  0  0  0  0
   -3.1760   -3.7210   -0.0270 C   0  0  0  0  0  0  0  0  0  0  0  0
    0.0000    0.0000    0.0000 H   0  0  0  0  0  0  0  0  0  0  0  0
    0.0000    0.0000    0.0000 H   0  0  0  0  0  0  0  0  0  0  0  0
    0.0000    0.0000    0.0000 H   0  0  0  0  0  0  0  0  0  0  0  0
    0.0000    0.0000    0.0000 H   0  0  0  0  0  0  0  0  0  0  0  0
    0.0000    0.0000    0.0000 H   0  0  0  0  0  0  0  0  0  0  0  0
    0.0000    0.0000    0.0000 H   0  0  0  0  0  0  0  0  0  0  0  0
    0.0000    0.0000    0.0000 H   0  0  0  0  0  0  0  0  0  0  0  0
    0.0000    0.0000    0.0000 H   0  0  0  0  0  0  0  0  0  0  0  0
    0.0000    0.0000    0.0000 H   0  0  0  0  0  0  0  0  0  0  0  0
    0.0000    0.0000    0.0000 H   0  0  0  0  0  0  0  0  0  0  0  0
    0.0000    0.0000    0.0000 H   0  0  0  0  0  0  0  0  0  0  0  0
    0.0000    0.0000    0.0000 H   0  0  0  0  0  0  0  0  0  0  0  0
    0.0000    0.0000    0.0000 H   0  0  0  0  0  0  0  0  0  0  0  0
    0.0000    0.0000    0.0000 H   0  0  0  0  0  0  0  0  0  0  0  0
  1  2  1  0
  2  3  1  0
  3  4  1  0
  4  5  1  0
  5  6  1  0
  6  7  1  0
  7  8  1  0
  1  9  1  0
  1 10  1  0
  1 11  1  0
  2 12  1  0
  2 13  1  0
  4 14  1  0
  4 15  1  0
  5 16  1  0
  5 17  1  0
  7 18  1  0
  7 19  1  0
  8 20  1  0
  8 21  1  0
  8 22  1  0
M  END
>  <partial_charges>  (125) 
-0.0969000011683
0.131400004029
-0.427199989557
0.127399995923
0.127399995923
-0.427199989557
0.131400004029
-0.0967999994755
0.0452999994159
0.0452999994159
0.0452999994159
0.0251000002027
0.0251000002027
0.0395999997854
0.0395999997854
0.0395999997854
0.0395999997854
0.0251000002027
0.0251000002027
0.0452999994159
0.0452999994159
0.0452999994159

>  <partial_bond_orders>  (125) 
1.0
1.0
1.0
1.0
1.0
1.0
1.0
1.0
1.0
1.0
1.0
1.0
1.0
1.0
1.0
1.0
1.0
1.0
1.0
1.0
1.0

>  <atom_types>  (125) 
c3
c3
os
c3
c3
os
c3
c3
hc
hc
hc
h1
h1
h1
h1
h1
h1
h1
h1
hc
hc
hc

>  <target>  (125) 
-3.54

>  <cal>  (125) 
-3.42

$$$$
mobley_2197088
     RDKit          3D

 32 31  0  0  0  0  0  0  0  0999 V2000
    0.4670   -0.7510    0.2710 C   0  0  0  0  0  0  0  0  0  0  0  0
   -0.2980   -2.0320    0.5650 C   0  0  0  0  0  0  0  0  0  0  0  0
   -1.2680   -2.3760   -0.5660 C   0  0  0  0  0  0  0  0  0  0  0  0
   -2.0370   -3.6650   -0.2670 C   0  0  0  0  0  0  0  0  0  0  0  0
   -3.0070   -4.0070   -1.4000 C   0  0  0  0  0  0  0  0  0  0  0  0
   -3.8040   -5.2920   -1.1510 C   0  0  0  0  0  0  0  0  0  0  0  0
   -4.7730   -5.6310   -2.2860 C   0  0  0  0  0  0  0  0  0  0  0  0
   -5.5700   -6.9160   -2.0370 C   0  0  0  0  0  0  0  0  0  0  0  0
   -6.5390   -7.2580   -3.1690 C   0  0  0  0  0  0  0  0  0  0  0  0
   -7.3050   -8.5390   -2.8750 C   0  0  0  0  0  0  0  0  0  0  0  0
    0.0000    0.0000    0.0000 H   0  0  0  0  0  0  0  0  0  0  0  0
    0.0000    0.0000    0.0000 H   0  0  0  0  0  0  0  0  0  0  0  0
    0.0000    0.0000    0.0000 H   0  0  0  0  0  0  0  0  0  0  0  0
    0.0000    0.0000    0.0000 H   0  0  0  0  0  0  0  0  0  0  0  0
    0.0000    0.0000    0.0000 H   0  0  0  0  0  0  0  0  0  0  0  0
    0.0000    0.0000    0.0000 H   0  0  0  0  0  0  0  0  0  0  0  0
    0.0000    0.0000    0.0000 H   0  0  0  0  0  0  0  0  0  0  0  0
    0.0000    0.0000    0.0000 H   0  0  0  0  0  0  0  0  0  0  0  0
    0.0000    0.0000    0.0000 H   0  0  0  0  0  0  0  0  0  0  0  0
    0.0000    0.0000    0.0000 H   0  0  0  0  0  0  0  0  0  0  0  0
    0.0000    0.0000    0.0000 H   0  0  0  0  0  0  0  0  0  0  0  0
    0.0000    0.0000    0.0000 H   0  0  0  0  0  0  0  0  0  0  0  0
    0.0000    0.0000    0.0000 H   0  0  0  0  0  0  0  0  0  0  0  0
    0.0000    0.0000    0.0000 H   0  0  0  0  0  0  0  0  0  0  0  0
    0.0000    0.0000    0.0000 H   0  0  0  0  0  0  0  0  0  0  0  0
    0.0000    0.0000    0.0000 H   0  0  0  0  0  0  0  0  0  0  0  0
    0.0000    0.0000    0.0000 H   0  0  0  0  0  0  0  0  0  0  0  0
    0.0000    0.0000    0.0000 H   0  0  0  0  0  0  0  0  0  0  0  0
    0.0000    0.0000    0.0000 H   0  0  0  0  0  0  0  0  0  0  0  0
    0.0000    0.0000    0.0000 H   0  0  0  0  0  0  0  0  0  0  0  0
    0.0000    0.0000    0.0000 H   0  0  0  0  0  0  0  0  0  0  0  0
    0.0000    0.0000    0.0000 H   0  0  0  0  0  0  0  0  0  0  0  0
  1  2  1  0
  2  3  1  0
  3  4  1  0
  4  5  1  0
  5  6  1  0
  6  7  1  0
  7  8  1  0
  8  9  1  0
  9 10  1  0
  1 11  1  0
  1 12  1  0
  1 13  1  0
  2 14  1  0
  2 15  1  0
  3 16  1  0
  3 17  1  0
  4 18  1  0
  4 19  1  0
  5 20  1  0
  5 21  1  0
  6 22  1  0
  6 23  1  0
  7 24  1  0
  7 25  1  0
  8 26  1  0
  8 27  1  0
  9 28  1  0
  9 29  1  0
 10 30  1  0
 10 31  1  0
 10 32  1  0
M  END
>  <partial_charges>  (126) 
-0.0920000001788
-0.0793000012636
-0.0784000009298
-0.0780000016093
-0.0776000022888
-0.0776000022888
-0.0780000016093
-0.0784000009298
-0.0793000012636
-0.091899998486
0.0326999984682
0.0326999984682
0.0326999984682
0.0379999987781
0.0379999987781
0.0386000014842
0.0386000014842
0.0384999997914
0.0384999997914
0.0386000014842
0.0386000014842
0.0386000014842
0.0386000014842
0.0384999997914
0.0384999997914
0.0386000014842
0.0386000014842
0.0379999987781
0.0379999987781
0.0326999984682
0.0326999984682
0.0326999984682

>  <partial_bond_orders>  (126) 
1.0
1.0
1.0
1.0
1.0
1.0
1.0
1.0
1.0
1.0
1.0
1.0
1.0
1.0
1.0
1.0
1.0
1.0
1.0
1.0
1.0
1.0
1.0
1.0
1.0
1.0
1.0
1.0
1.0
1.0
1.0

>  <atom_types>  (126) 
c3
c3
c3
c3
c3
c3
c3
c3
c3
c3
hc
hc
hc
hc
hc
hc
hc
hc
hc
hc
hc
hc
hc
hc
hc
hc
hc
hc
hc
hc
hc
hc

>  <target>  (126) 
3.16

>  <cal>  (126) 
3.335

$$$$
mobley_4364398
     RDKit          3D

  5  4  0  0  0  0  0  0  0  0999 V2000
   -0.1830    0.0220   -0.0280 C   0  0  0  0  0  0  0  0  0  0  0  0
    1.8910   -0.2250    0.2860 I   0  0  0  0  0  0  0  0  0  0  0  0
    0.0000    0.0000    0.0000 H   0  0  0  0  0  0  0  0  0  0  0  0
    0.0000    0.0000    0.0000 H   0  0  0  0  0  0  0  0  0  0  0  0
    0.0000    0.0000    0.0000 H   0  0  0  0  0  0  0  0  0  0  0  0
  1  2  1  0
  1  3  1  0
  1  4  1  0
  1  5  1  0
M  END
>  <partial_charges>  (127) 
0.0362000018358
-0.243499994278
0.0690999999642
0.0690999999642
0.0690999999642

>  <partial_bond_orders>  (127) 
1.0
1.0
1.0
1.0

>  <atom_types>  (127) 
c3
i
h1
h1
h1

>  <target>  (127) 
-0.89

>  <cal>  (127) 
-0.641

$$$$
mobley_5494918
     RDKit          3D

  9  8  0  0  0  0  0  0  0  0999 V2000
    0.2900    0.3330    0.3160 C   0  0  0  0  0  0  0  0  0  0  0  0
   -0.2550   -0.3390    1.3350 C   0  0  0  0  0  0  0  0  0  0  0  0
    0.0440   -0.0240    2.6120 F   0  0  0  0  0  0  0  0  0  0  0  0
   -1.1170   -1.3470    1.0820 F   0  0  0  0  0  0  0  0  0  0  0  0
    0.0290    0.0660   -1.1230 C   0  0  0  0  0  0  0  0  0  0  0  0
    0.7070    0.8890   -1.9620 F   0  0  0  0  0  0  0  0  0  0  0  0
    0.3710   -1.2040   -1.4590 F   0  0  0  0  0  0  0  0  0  0  0  0
   -1.2890    0.2060   -1.4180 F   0  0  0  0  0  0  0  0  0  0  0  0
    1.1490    1.3350    0.6170 F   0  0  0  0  0  0  0  0  0  0  0  0
  1  2  2  0
  2  3  1  0
  2  4  1  0
  1  5  1  0
  5  6  1  0
  5  7  1  0
  5  8  1  0
  1  9  1  0
M  END
>  <partial_charges>  (128) 
-0.0537000000477
0.378699988127
-0.128600001335
-0.128600001335
0.693099975586
-0.21590000391
-0.21590000391
-0.21590000391
-0.113099999726

>  <partial_bond_orders>  (128) 
2.0
1.0
1.0
1.0
1.0
1.0
1.0
1.0

>  <atom_types>  (128) 
c2
c2
f
f
c3
f
f
f
f

>  <target>  (128) 
2.93

>  <cal>  (128) 
2.305

$$$$
mobley_8057732
     RDKit          3D

 13 13  0  0  0  0  0  0  0  0999 V2000
    1.8850   -1.0360   -0.1120 C   0  0  0  0  0  0  0  0  0  0  0  0
    2.9210   -1.6310    0.6080 C   0  0  0  0  0  0  0  0  0  0  0  0
    2.8780   -1.6520    2.0020 C   0  0  0  0  0  0  0  0  0  0  0  0
    1.8000   -1.0790    2.6760 C   0  0  0  0  0  0  0  0  0  0  0  0
    0.7640   -0.4840    1.9550 C   0  0  0  0  0  0  0  0  0  0  0  0
    0.8070   -0.4630    0.5610 C   0  0  0  0  0  0  0  0  0  0  0  0
   -0.5670    0.2240    2.7850 Cl  0  0  0  0  0  0  0  0  0  0  0  0
    3.8890   -2.2320    2.7050 O   0  0  0  0  0  0  0  0  0  0  0  0
    0.0000    0.0000    0.0000 H   0  0  0  0  0  0  0  0  0  0  0  0
    0.0000    0.0000    0.0000 H   0  0  0  0  0  0  0  0  0  0  0  0
    0.0000    0.0000    0.0000 H   0  0  0  0  0  0  0  0  0  0  0  0
    0.0000    0.0000    0.0000 H   0  0  0  0  0  0  0  0  0  0  0  0
    0.0000    0.0000    0.0000 H   0  0  0  0  0  0  0  0  0  0  0  0
  1  6  2  0
  1  2  1  0
  2  3  2  0
  3  4  1  0
  4  5  2  0
  5  6  1  0
  5  7  1  0
  3  8  1  0
  1  9  1  0
  2 10  1  0
  4 11  1  0
  6 12  1  0
  8 13  1  0
M  END
>  <partial_charges>  (129) 
-0.0821999981999
-0.215299993753
0.134000003338
-0.153699994087
0.0494999997318
-0.16060000658
-0.089500002563
-0.493699997663
0.140200003982
0.135199993849
0.165299996734
0.148900002241
0.421700000763

>  <partial_bond_orders>  (129) 
2.0
1.0
2.0
1.0
2.0
1.0
1.0
1.0
1.0
1.0
1.0
1.0
1.0

>  <atom_types>  (129) 
ca
ca
ca
ca
ca
ca
cl
oh
ha
ha
ha
ha
ho

>  <target>  (129) 
-6.62

>  <cal>  (129) 
-5.018

$$$$
mobley_4683624
     RDKit          3D

 22 22  0  0  0  0  0  0  0  0999 V2000
    1.3040   -2.2290   -3.7210 C   0  0  0  0  0  0  0  0  0  0  0  0
    1.2580   -2.2530   -2.2020 C   0  0  0  0  0  0  0  0  0  0  0  0
    1.9290   -1.0150   -1.6030 C   0  0  0  0  0  0  0  0  0  0  0  0
    1.8850   -1.0360   -0.1120 C   0  0  0  0  0  0  0  0  0  0  0  0
    2.9210   -1.6310    0.6080 C   0  0  0  0  0  0  0  0  0  0  0  0
    2.8780   -1.6520    2.0020 C   0  0  0  0  0  0  0  0  0  0  0  0
    1.8000   -1.0790    2.6760 C   0  0  0  0  0  0  0  0  0  0  0  0
    0.7640   -0.4840    1.9550 C   0  0  0  0  0  0  0  0  0  0  0  0
    0.8070   -0.4630    0.5610 C   0  0  0  0  0  0  0  0  0  0  0  0
    1.7580   -1.1000    4.0360 O   0  0  0  0  0  0  0  0  0  0  0  0
    0.0000    0.0000    0.0000 H   0  0  0  0  0  0  0  0  0  0  0  0
    0.0000    0.0000    0.0000 H   0  0  0  0  0  0  0  0  0  0  0  0
    0.0000    0.0000    0.0000 H   0  0  0  0  0  0  0  0  0  0  0  0
    0.0000    0.0000    0.0000 H   0  0  0  0  0  0  0  0  0  0  0  0
    0.0000    0.0000    0.0000 H   0  0  0  0  0  0  0  0  0  0  0  0
    0.0000    0.0000    0.0000 H   0  0  0  0  0  0  0  0  0  0  0  0
    0.0000    0.0000    0.0000 H   0  0  0  0  0  0  0  0  0  0  0  0
    0.0000    0.0000    0.0000 H   0  0  0  0  0  0  0  0  0  0  0  0
    0.0000    0.0000    0.0000 H   0  0  0  0  0  0  0  0  0  0  0  0
    0.0000    0.0000    0.0000 H   0  0  0  0  0  0  0  0  0  0  0  0
    0.0000    0.0000    0.0000 H   0  0  0  0  0  0  0  0  0  0  0  0
    0.0000    0.0000    0.0000 H   0  0  0  0  0  0  0  0  0  0  0  0
  1  2  1  0
  2  3  1  0
  3  4  1  0
  4  9  2  0
  4  5  1  0
  5  6  2  0
  6  7  1  0
  7  8  2  0
  8  9  1  0
  7 10  1  0
  1 11  1  0
  1 12  1  0
  1 13  1  0
  2 14  1  0
  2 15  1  0
  3 16  1  0
  3 17  1  0
  5 18  1  0
  6 19  1  0
  8 20  1  0
  9 21  1  0
 10 22  1  0
M  END
>  <partial_charges>  (130) 
-0.0932999998331
-0.0778999999166
-0.0318000018597
-0.112800002098
-0.091899998486
-0.183400005102
0.120099999011
-0.183400005102
-0.091899998486
-0.498699992895
0.0333999991417
0.0333999991417
0.0333999991417
0.0428000018001
0.0428000018001
0.0458999983966
0.0458999983966
0.133599996567
0.141100004315
0.141100004315
0.133599996567
0.418300002813

>  <partial_bond_orders>  (130) 
1.0
1.0
1.0
2.0
1.0
2.0
1.0
2.0
1.0
1.0
1.0
1.0
1.0
1.0
1.0
1.0
1.0
1.0
1.0
1.0
1.0
1.0

>  <atom_types>  (130) 
c3
c3
c3
ca
ca
ca
ca
ca
ca
oh
hc
hc
hc
hc
hc
hc
hc
ha
ha
ha
ha
ho

>  <target>  (130) 
-5.21

>  <cal>  (130) 
-5.211

$$$$
mobley_1976156
     RDKit          3D

 28 27  0  0  0  0  0  0  0  0999 V2000
   -0.6130    4.7470   -1.5460 C   0  0  0  0  0  0  0  0  0  0  0  0
   -0.0230    3.8200   -0.4940 C   0  0  0  0  0  0  0  0  0  0  0  0
   -0.2800    2.3520   -0.8370 C   0  0  0  0  0  0  0  0  0  0  0  0
    0.2950    1.3760    0.1930 C   0  0  0  0  0  0  0  0  0  0  0  0
    0.0380   -0.0930   -0.1510 C   0  0  0  0  0  0  0  0  0  0  0  0
    0.6330   -1.0230    0.9090 C   0  0  0  0  0  0  0  0  0  0  0  0
    0.3760   -2.4940    0.5660 C   0  0  0  0  0  0  0  0  0  0  0  0
    0.9580   -3.4460    1.6060 C   0  0  0  0  0  0  0  0  0  0  0  0
    0.7240   -4.9070    1.3010 C   0  0  0  0  0  0  0  0  0  0  0  0
    0.1260   -5.3320    0.3190 O   0  0  0  0  0  0  0  0  0  0  0  0
    0.0000    0.0000    0.0000 H   0  0  0  0  0  0  0  0  0  0  0  0
    0.0000    0.0000    0.0000 H   0  0  0  0  0  0  0  0  0  0  0  0
    0.0000    0.0000    0.0000 H   0  0  0  0  0  0  0  0  0  0  0  0
    0.0000    0.0000    0.0000 H   0  0  0  0  0  0  0  0  0  0  0  0
    0.0000    0.0000    0.0000 H   0  0  0  0  0  0  0  0  0  0  0  0
    0.0000    0.0000    0.0000 H   0  0  0  0  0  0  0  0  0  0  0  0
    0.0000    0.0000    0.0000 H   0  0  0  0  0  0  0  0  0  0  0  0
    0.0000    0.0000    0.0000 H   0  0  0  0  0  0  0  0  0  0  0  0
    0.0000    0.0000    0.0000 H   0  0  0  0  0  0  0  0  0  0  0  0
    0.0000    0.0000    0.0000 H   0  0  0  0  0  0  0  0  0  0  0  0
    0.0000    0.0000    0.0000 H   0  0  0  0  0  0  0  0  0  0  0  0
    0.0000    0.0000    0.0000 H   0  0  0  0  0  0  0  0  0  0  0  0
    0.0000    0.0000    0.0000 H   0  0  0  0  0  0  0  0  0  0  0  0
    0.0000    0.0000    0.0000 H   0  0  0  0  0  0  0  0  0  0  0  0
    0.0000    0.0000    0.0000 H   0  0  0  0  0  0  0  0  0  0  0  0
    0.0000    0.0000    0.0000 H   0  0  0  0  0  0  0  0  0  0  0  0
    0.0000    0.0000    0.0000 H   0  0  0  0  0  0  0  0  0  0  0  0
    0.0000    0.0000    0.0000 H   0  0  0  0  0  0  0  0  0  0  0  0
  1  2  1  0
  2  3  1  0
  3  4  1  0
  4  5  1  0
  5  6  1  0
  6  7  1  0
  7  8  1  0
  8  9  1  0
  9 10  2  0
  1 11  1  0
  1 12  1  0
  1 13  1  0
  2 14  1  0
  2 15  1  0
  3 16  1  0
  3 17  1  0
  4 18  1  0
  4 19  1  0
  5 20  1  0
  5 21  1  0
  6 22  1  0
  6 23  1  0
  7 24  1  0
  7 25  1  0
  8 26  1  0
  8 27  1  0
  9 28  1  0
M  END
>  <partial_charges>  (131) 
-0.0921000018716
-0.0794999971986
-0.0799999982119
-0.0773999989033
-0.0786999985576
-0.0784000009298
-0.0744000002742
-0.199300006032
0.563499987125
-0.52380001545
0.0329999998212
0.0329999998212
0.0329999998212
0.0379000008106
0.0379000008106
0.0392999984324
0.0392999984324
0.0390000008047
0.0390000008047
0.0421000011265
0.0421000011265
0.0375000014901
0.0375000014901
0.0540000014007
0.0540000014007
0.0658999979496
0.0658999979496
-0.0104000000283

>  <partial_bond_orders>  (131) 
1.0
1.0
1.0
1.0
1.0
1.0
1.0
1.0
2.0
1.0
1.0
1.0
1.0
1.0
1.0
1.0
1.0
1.0
1.0
1.0
1.0
1.0
1.0
1.0
1.0
1.0
1.0

>  <atom_types>  (131) 
c3
c3
c3
c3
c3
c3
c3
c3
c
o
hc
hc
hc
hc
hc
hc
hc
hc
hc
hc
hc
hc
hc
hc
hc
hc
hc
h4

>  <target>  (131) 
-2.07

>  <cal>  (131) 
-2.336

$$$$
mobley_2099370
     RDKit          3D

 33 34  0  0  1  0  0  0  0  0999 V2000
    1.9220    0.4070   -2.1730 C   0  0  0  0  0  0  0  0  0  0  0  0
    1.9310   -1.0140   -1.6030 C   0  0  0  0  0  0  0  0  0  0  0  0
    1.8850   -1.0360   -0.1120 C   0  0  0  0  0  0  0  0  0  0  0  0
    2.9210   -1.6310    0.6080 C   0  0  0  0  0  0  0  0  0  0  0  0
    2.8780   -1.6520    2.0020 C   0  0  0  0  0  0  0  0  0  0  0  0
    1.8000   -1.0790    2.6760 C   0  0  0  0  0  0  0  0  0  0  0  0
    0.7640   -0.4840    1.9550 C   0  0  0  0  0  0  0  0  0  0  0  0
    0.8070   -0.4630    0.5610 C   0  0  0  0  0  0  0  0  0  0  0  0
   -0.3610    0.1120    2.6570 C   0  0  0  0  0  0  0  0  0  0  0  0
   -0.3290    1.3060    2.9900 O   0  0  0  0  0  0  0  0  0  0  0  0
   -1.5890   -0.6640    3.0080 C   0  0  0  0  0  0  0  0  0  0  0  0
   -1.6860   -2.0110    2.6590 C   0  0  0  0  0  0  0  0  0  0  0  0
   -2.8330   -2.7350    2.9850 C   0  0  0  0  0  0  0  0  0  0  0  0
   -3.8820   -2.1120    3.6600 C   0  0  0  0  0  0  0  0  0  0  0  0
   -3.7860   -0.7650    4.0090 C   0  0  0  0  0  0  0  0  0  0  0  0
   -2.6390   -0.0410    3.6830 C   0  0  0  0  0  0  0  0  0  0  0  0
    0.8000   -1.8310   -2.2110 C   0  0  0  0  0  0  0  0  0  0  0  0
   -0.1120   -2.3530   -1.5830 O   0  0  0  0  0  0  0  0  0  0  0  0
    0.9080   -1.9290   -3.5620 O   0  0  0  0  0  0  0  0  0  0  0  0
    0.0000    0.0000    0.0000 H   0  0  0  0  0  0  0  0  0  0  0  0
    0.0000    0.0000    0.0000 H   0  0  0  0  0  0  0  0  0  0  0  0
    0.0000    0.0000    0.0000 H   0  0  0  0  0  0  0  0  0  0  0  0
    0.0000    0.0000    0.0000 H   0  0  0  0  0  0  0  0  0  0  0  0
    0.0000    0.0000    0.0000 H   0  0  0  0  0  0  0  0  0  0  0  0
    0.0000    0.0000    0.0000 H   0  0  0  0  0  0  0  0  0  0  0  0
    0.0000    0.0000    0.0000 H   0  0  0  0  0  0  0  0  0  0  0  0
    0.0000    0.0000    0.0000 H   0  0  0  0  0  0  0  0  0  0  0  0
    0.0000    0.0000    0.0000 H   0  0  0  0  0  0  0  0  0  0  0  0
    0.0000    0.0000    0.0000 H   0  0  0  0  0  0  0  0  0  0  0  0
    0.0000    0.0000    0.0000 H   0  0  0  0  0  0  0  0  0  0  0  0
    0.0000    0.0000    0.0000 H   0  0  0  0  0  0  0  0  0  0  0  0
    0.0000    0.0000    0.0000 H   0  0  0  0  0  0  0  0  0  0  0  0
    0.0000    0.0000    0.0000 H   0  0  0  0  0  0  0  0  0  0  0  0
  1  2  1  0
  2  3  1  0
  3  8  2  0
  3  4  1  0
  4  5  2  0
  5  6  1  0
  6  7  2  0
  7  8  1  0
  7  9  1  0
  9 10  2  0
  9 11  1  0
 11 16  1  0
 11 12  2  0
 12 13  1  0
 13 14  2  0
 14 15  1  0
 15 16  2  0
  2 17  1  0
 17 18  2  0
 17 19  1  0
  1 20  1  0
  1 21  1  0
  1 22  1  0
  2 23  1  0
  4 24  1  0
  5 25  1  0
  6 26  1  0
  8 27  1  0
 12 28  1  0
 13 29  1  0
 14 30  1  0
 15 31  1  0
 16 32  1  0
 19 33  1  0
M  END
>  <partial_charges>  (132) 
-0.0874999985099
-0.0566000007093
0.0888999998569
-0.0892999991775
-0.0932999998331
-0.133499994874
-0.0966000035405
-0.151999995112
-0.0744000002742
0.587499976158
-0.522000014782
-0.173199996352
-0.0798000022769
-0.146999999881
-0.0993999987841
-0.146999999881
-0.0798000022769
0.633499979973
-0.534500002861
-0.613499999046
0.0511999987066
0.0511999987066
0.0511999987066
0.138500005007
0.138300001621
0.141200006008
0.144999995828
0.149299994111
0.137400001287
0.135100007057
0.137400001287
0.149299994111
0.444299995899

>  <partial_bond_orders>  (132) 
1.0
1.0
1.0
2.0
1.0
2.0
1.0
2.0
1.0
1.0
2.0
1.0
2.0
1.0
2.0
1.0
2.0
1.0
1.0
2.0
1.0
1.0
1.0
1.0
1.0
1.0
1.0
1.0
1.0
1.0
1.0
1.0
1.0
1.0

>  <atom_types>  (132) 
c3
c3
hc
ca
ca
ca
ca
ca
ca
c
o
ca
ca
ca
ca
ca
ca
c
o
oh
hc
hc
hc
ha
ha
ha
ha
ha
ha
ha
ha
ha
ho

>  <target>  (132) 
-10.78

>  <cal>  (132) 
-17.242

$$$$
mobley_6334915
     RDKit          3D

 20 19  0  0  1  0  0  0  0  0999 V2000
   -0.7100   -1.4370    1.7790 C   0  0  0  0  0  0  0  0  0  0  0  0
    0.1730   -1.6540    0.6920 O   0  0  0  0  0  0  0  0  0  0  0  0
    0.3890   -0.5240   -0.4500 P   0  0  0  0  0  0  0  0  0  0  0  0
    1.3630   -0.9410   -1.5160 O   0  0  0  0  0  0  0  0  0  0  0  0
    0.8390    0.9720    0.4370 C   0  0  0  0  0  0  0  0  0  0  0  0
    1.2260    2.2150   -0.3780 C   0  0  0  0  0  0  0  0  0  0  0  0
    1.6280    3.5660    0.7390 Cl  0  0  0  0  0  0  0  0  0  0  0  0
    2.6500    1.9170   -1.4180 Cl  0  0  0  0  0  0  0  0  0  0  0  0
   -0.1350    2.7500   -1.4080 Cl  0  0  0  0  0  0  0  0  0  0  0  0
    1.9380    0.5530    1.2460 O   0  0  0  0  0  0  0  0  0  0  0  0
   -1.1090   -0.2360   -0.9940 O   0  0  0  0  0  0  0  0  0  0  0  0
   -1.6790   -1.1400   -1.9250 C   0  0  0  0  0  0  0  0  0  0  0  0
    0.0000    0.0000    0.0000 H   0  0  0  0  0  0  0  0  0  0  0  0
    0.0000    0.0000    0.0000 H   0  0  0  0  0  0  0  0  0  0  0  0
    0.0000    0.0000    0.0000 H   0  0  0  0  0  0  0  0  0  0  0  0
    0.0000    0.0000    0.0000 H   0  0  0  0  0  0  0  0  0  0  0  0
    0.0000    0.0000    0.0000 H   0  0  0  0  0  0  0  0  0  0  0  0
    0.0000    0.0000    0.0000 H   0  0  0  0  0  0  0  0  0  0  0  0
    0.0000    0.0000    0.0000 H   0  0  0  0  0  0  0  0  0  0  0  0
    0.0000    0.0000    0.0000 H   0  0  0  0  0  0  0  0  0  0  0  0
  1  2  1  0
  2  3  1  0
  3  4  2  0
  3  5  1  0
  5  6  1  0
  6  7  1  0
  6  8  1  0
  6  9  1  0
  5 10  1  0
  3 11  1  0
 11 12  1  0
  1 13  1  0
  1 14  1  0
  1 15  1  0
  5 16  1  0
 10 17  1  0
 12 18  1  0
 12 19  1  0
 12 20  1  0
M  END
>  <partial_charges>  (133) 
0.153300002217
-0.577700018883
1.52699995041
-0.775699973106
-0.091899998486
0.0944000035524
0.247299998999
-0.0996999964118
-0.0996999964118
-0.0996999964118
-0.559000015259
-0.577700018883
0.153300002217
0.0456999987364
0.0456999987364
0.0456999987364
0.431199997663
0.0456999987364
0.0456999987364
0.0456999987364

>  <partial_bond_orders>  (133) 
1.0
1.0
2.0
1.0
1.0
1.0
1.0
1.0
1.0
1.0
1.0
1.0
1.0
1.0
1.0
1.0
1.0
1.0
1.0

>  <atom_types>  (133) 
c3
os
p5
o
c3
h1
c3
cl
cl
cl
oh
os
c3
h1
h1
h1
ho
h1
h1
h1

>  <target>  (133) 
-12.74

>  <cal>  (133) 
-13.424

$$$$
mobley_9729792
     RDKit          3D

 15 15  0  0  0  0  0  0  0  0999 V2000
    0.5000   -1.4460    0.7280 C   0  0  0  0  0  0  0  0  0  0  0  0
    1.1820   -0.9670   -0.5170 C   0  0  0  0  0  0  0  0  0  0  0  0
    1.0400    0.1680   -1.2110 C   0  0  0  0  0  0  0  0  0  0  0  0
    0.2110    1.3040   -0.9110 C   0  0  0  0  0  0  0  0  0  0  0  0
   -0.8070    1.3870   -0.0480 C   0  0  0  0  0  0  0  0  0  0  0  0
   -1.3400    0.3610    0.8070 C   0  0  0  0  0  0  0  0  0  0  0  0
   -0.7860   -0.8080    1.1530 C   0  0  0  0  0  0  0  0  0  0  0  0
    0.0000    0.0000    0.0000 H   0  0  0  0  0  0  0  0  0  0  0  0
    0.0000    0.0000    0.0000 H   0  0  0  0  0  0  0  0  0  0  0  0
    0.0000    0.0000    0.0000 H   0  0  0  0  0  0  0  0  0  0  0  0
    0.0000    0.0000    0.0000 H   0  0  0  0  0  0  0  0  0  0  0  0
    0.0000    0.0000    0.0000 H   0  0  0  0  0  0  0  0  0  0  0  0
    0.0000    0.0000    0.0000 H   0  0  0  0  0  0  0  0  0  0  0  0
    0.0000    0.0000    0.0000 H   0  0  0  0  0  0  0  0  0  0  0  0
    0.0000    0.0000    0.0000 H   0  0  0  0  0  0  0  0  0  0  0  0
  1  7  1  0
  1  2  1  0
  2  3  2  0
  3  4  1  0
  4  5  2  0
  5  6  1  0
  6  7  2  0
  1  8  1  0
  1  9  1  0
  2 10  1  0
  3 11  1  0
  4 12  1  0
  5 13  1  0
  6 14  1  0
  7 15  1  0
M  END
>  <partial_charges>  (134) 
-0.00930000003427
-0.141699999571
-0.13330000639
-0.119800001383
-0.119800001383
-0.13330000639
-0.141699999571
0.0485000014305
0.0485000014305
0.113300003111
0.118100002408
0.119599997997
0.119599997997
0.118100002408
0.113300003111

>  <partial_bond_orders>  (134) 
1.0
1.0
2.0
1.0
2.0
1.0
2.0
1.0
1.0
1.0
1.0
1.0
1.0
1.0
1.0

>  <atom_types>  (134) 
c3
c2
ce
ce
cf
cf
c2
hc
hc
ha
ha
ha
ha
ha
ha

>  <target>  (134) 
-0.99

>  <cal>  (134) 
-0.098

$$$$
mobley_525934
     RDKit          3D

  6  5  0  0  0  0  0  0  0  0999 V2000
    0.2790    0.8230    0.6630 C   0  0  0  0  0  0  0  0  0  0  0  0
   -0.4280    2.3670    0.0540 S   0  0  0  0  0  0  0  0  0  0  0  0
    0.0000    0.0000    0.0000 H   0  0  0  0  0  0  0  0  0  0  0  0
    0.0000    0.0000    0.0000 H   0  0  0  0  0  0  0  0  0  0  0  0
    0.0000    0.0000    0.0000 H   0  0  0  0  0  0  0  0  0  0  0  0
    0.0000    0.0000    0.0000 H   0  0  0  0  0  0  0  0  0  0  0  0
  1  2  1  0
  1  3  1  0
  1  4  1  0
  1  5  1  0
  2  6  1  0
M  END
>  <partial_charges>  (135) 
-0.0240000002086
-0.362599998713
0.0635000020266
0.0635000020266
0.0635000020266
0.19619999826

>  <partial_bond_orders>  (135) 
1.0
1.0
1.0
1.0
1.0

>  <atom_types>  (135) 
c3
sh
h1
h1
h1
hs

>  <target>  (135) 
-1.2

>  <cal>  (135) 
-0.273

$$$$
mobley_3053621
     RDKit          3D

 12 12  0  0  0  0  0  0  0  0999 V2000
    1.8850   -1.0360   -0.1120 C   0  0  0  0  0  0  0  0  0  0  0  0
    2.9210   -1.6310    0.6080 C   0  0  0  0  0  0  0  0  0  0  0  0
    2.8780   -1.6520    2.0020 C   0  0  0  0  0  0  0  0  0  0  0  0
    1.8000   -1.0790    2.6760 C   0  0  0  0  0  0  0  0  0  0  0  0
    0.7640   -0.4840    1.9550 C   0  0  0  0  0  0  0  0  0  0  0  0
    0.8070   -0.4630    0.5610 C   0  0  0  0  0  0  0  0  0  0  0  0
    0.0000    0.0000    0.0000 H   0  0  0  0  0  0  0  0  0  0  0  0
    0.0000    0.0000    0.0000 H   0  0  0  0  0  0  0  0  0  0  0  0
    0.0000    0.0000    0.0000 H   0  0  0  0  0  0  0  0  0  0  0  0
    0.0000    0.0000    0.0000 H   0  0  0  0  0  0  0  0  0  0  0  0
    0.0000    0.0000    0.0000 H   0  0  0  0  0  0  0  0  0  0  0  0
    0.0000    0.0000    0.0000 H   0  0  0  0  0  0  0  0  0  0  0  0
  1  6  2  0
  1  2  1  0
  2  3  2  0
  3  4  1  0
  4  5  2  0
  5  6  1  0
  1  7  1  0
  2  8  1  0
  3  9  1  0
  4 10  1  0
  5 11  1  0
  6 12  1  0
M  END
>  <partial_charges>  (136) 
-0.130199998617
-0.130099996924
-0.130099996924
-0.130099996924
-0.130099996924
-0.130099996924
0.130099996924
0.130099996924
0.130099996924
0.130099996924
0.130099996924
0.130099996924

>  <partial_bond_orders>  (136) 
2.0
1.0
2.0
1.0
2.0
1.0
1.0
1.0
1.0
1.0
1.0
1.0

>  <atom_types>  (136) 
ca
ca
ca
ca
ca
ca
ha
ha
ha
ha
ha
ha

>  <target>  (136) 
-0.9

>  <cal>  (136) 
-0.806

$$$$
mobley_6843802
     RDKit          3D

 19 19  0  0  1  0  0  0  0  0999 V2000
    1.8850   -1.0360   -0.1120 C   0  0  0  0  0  0  0  0  0  0  0  0
    2.9210   -1.6310    0.6080 C   0  0  0  0  0  0  0  0  0  0  0  0
    2.8780   -1.6520    2.0020 C   0  0  0  0  0  0  0  0  0  0  0  0
    1.8000   -1.0790    2.6760 C   0  0  0  0  0  0  0  0  0  0  0  0
    0.7640   -0.4840    1.9550 C   0  0  0  0  0  0  0  0  0  0  0  0
    0.8070   -0.4630    0.5610 C   0  0  0  0  0  0  0  0  0  0  0  0
    1.7590   -1.0980    4.0360 O   0  0  0  0  0  0  0  0  0  0  0  0
    3.0020   -1.0830    4.7400 C   0  0  0  0  0  0  0  0  0  0  0  0
    2.7980   -0.4230    6.0830 C   0  0  0  0  0  0  0  0  0  0  0  0
    1.8800   -1.1170    6.7980 F   0  0  0  0  0  0  0  0  0  0  0  0
    3.9560   -0.4590    6.7890 F   0  0  0  0  0  0  0  0  0  0  0  0
    3.3980   -2.3660    4.9530 F   0  0  0  0  0  0  0  0  0  0  0  0
    0.0000    0.0000    0.0000 H   0  0  0  0  0  0  0  0  0  0  0  0
    0.0000    0.0000    0.0000 H   0  0  0  0  0  0  0  0  0  0  0  0
    0.0000    0.0000    0.0000 H   0  0  0  0  0  0  0  0  0  0  0  0
    0.0000    0.0000    0.0000 H   0  0  0  0  0  0  0  0  0  0  0  0
    0.0000    0.0000    0.0000 H   0  0  0  0  0  0  0  0  0  0  0  0
    0.0000    0.0000    0.0000 H   0  0  0  0  0  0  0  0  0  0  0  0
    0.0000    0.0000    0.0000 H   0  0  0  0  0  0  0  0  0  0  0  0
  1  6  2  0
  1  2  1  0
  2  3  2  0
  3  4  1  0
  4  5  2  0
  5  6  1  0
  4  7  1  0
  7  8  1  0
  8  9  1  0
  9 10  1  0
  9 11  1  0
  8 12  1  0
  1 13  1  0
  2 14  1  0
  3 15  1  0
  5 16  1  0
  6 17  1  0
  8 18  1  0
  9 19  1  0
M  END
>  <partial_charges>  (137) 
-0.146899998188
-0.103299997747
-0.163100004196
0.110200002789
-0.163100004196
-0.103299997747
-0.350600004196
0.31740000844
0.0856000036001
0.388099998236
-0.2268999964
-0.2268999964
-0.218400001526
0.139899998903
0.135800004005
0.148200005293
0.148200005293
0.135800004005
0.0930999964476

>  <partial_bond_orders>  (137) 
2.0
1.0
2.0
1.0
2.0
1.0
1.0
1.0
1.0
1.0
1.0
1.0
1.0
1.0
1.0
1.0
1.0
1.0
1.0

>  <atom_types>  (137) 
ca
ca
ca
ca
ca
ca
os
c3
h2
c3
f
f
f
ha
ha
ha
ha
ha
h2

>  <target>  (137) 
-1.29

>  <cal>  (137) 
-3.043

$$$$
mobley_36119
     RDKit          3D

 27 26  0  0  0  0  0  0  0  0999 V2000
    2.5800    3.1400   -2.3930 C   0  0  0  0  0  0  0  0  0  0  0  0
    2.1180    1.7400   -2.7630 C   0  0  0  0  0  0  0  0  0  0  0  0
    0.9800    1.7770   -3.7840 C   0  0  0  0  0  0  0  0  0  0  0  0
    0.5210    0.3650   -4.1520 C   0  0  0  0  0  0  0  0  0  0  0  0
   -0.6200    0.3420   -5.1750 C   0  0  0  0  0  0  0  0  0  0  0  0
   -1.0790   -1.0710   -5.5420 C   0  0  0  0  0  0  0  0  0  0  0  0
   -2.2160   -1.0340   -6.5630 C   0  0  0  0  0  0  0  0  0  0  0  0
   -2.6810   -2.4350   -6.9360 C   0  0  0  0  0  0  0  0  0  0  0  0
   -3.7340   -2.3320   -7.8840 O   0  0  0  0  0  0  0  0  0  0  0  0
    0.0000    0.0000    0.0000 H   0  0  0  0  0  0  0  0  0  0  0  0
    0.0000    0.0000    0.0000 H   0  0  0  0  0  0  0  0  0  0  0  0
    0.0000    0.0000    0.0000 H   0  0  0  0  0  0  0  0  0  0  0  0
    0.0000    0.0000    0.0000 H   0  0  0  0  0  0  0  0  0  0  0  0
    0.0000    0.0000    0.0000 H   0  0  0  0  0  0  0  0  0  0  0  0
    0.0000    0.0000    0.0000 H   0  0  0  0  0  0  0  0  0  0  0  0
    0.0000    0.0000    0.0000 H   0  0  0  0  0  0  0  0  0  0  0  0
    0.0000    0.0000    0.0000 H   0  0  0  0  0  0  0  0  0  0  0  0
    0.0000    0.0000    0.0000 H   0  0  0  0  0  0  0  0  0  0  0  0
    0.0000    0.0000    0.0000 H   0  0  0  0  0  0  0  0  0  0  0  0
    0.0000    0.0000    0.0000 H   0  0  0  0  0  0  0  0  0  0  0  0
    0.0000    0.0000    0.0000 H   0  0  0  0  0  0  0  0  0  0  0  0
    0.0000    0.0000    0.0000 H   0  0  0  0  0  0  0  0  0  0  0  0
    0.0000    0.0000    0.0000 H   0  0  0  0  0  0  0  0  0  0  0  0
    0.0000    0.0000    0.0000 H   0  0  0  0  0  0  0  0  0  0  0  0
    0.0000    0.0000    0.0000 H   0  0  0  0  0  0  0  0  0  0  0  0
    0.0000    0.0000    0.0000 H   0  0  0  0  0  0  0  0  0  0  0  0
    0.0000    0.0000    0.0000 H   0  0  0  0  0  0  0  0  0  0  0  0
  1  2  1  0
  2  3  1  0
  3  4  1  0
  4  5  1  0
  5  6  1  0
  6  7  1  0
  7  8  1  0
  8  9  1  0
  1 10  1  0
  1 11  1  0
  1 12  1  0
  2 13  1  0
  2 14  1  0
  3 15  1  0
  3 16  1  0
  4 17  1  0
  4 18  1  0
  5 19  1  0
  5 20  1  0
  6 21  1  0
  6 22  1  0
  7 23  1  0
  7 24  1  0
  8 25  1  0
  8 26  1  0
  9 27  1  0
M  END
>  <partial_charges>  (138) 
-0.091899998486
-0.0803000032902
-0.0788000002503
-0.0788000002503
-0.0780000016093
-0.0781999975443
-0.0837000012398
0.132699996233
-0.602699995041
0.0329000018537
0.0329000018537
0.0329000018537
0.0375000014901
0.0375000014901
0.0397000014782
0.0397000014782
0.0390000008047
0.0390000008047
0.041400000453
0.041400000453
0.0388999991119
0.0388999991119
0.0551000013947
0.0551000013947
0.0196000002325
0.0196000002325
0.398699998856

>  <partial_bond_orders>  (138) 
1.0
1.0
1.0
1.0
1.0
1.0
1.0
1.0
1.0
1.0
1.0
1.0
1.0
1.0
1.0
1.0
1.0
1.0
1.0
1.0
1.0
1.0
1.0
1.0
1.0
1.0

>  <atom_types>  (138) 
c3
c3
c3
c3
c3
c3
c3
c3
oh
hc
hc
hc
hc
hc
hc
hc
hc
hc
hc
hc
hc
hc
hc
hc
h1
h1
ho

>  <target>  (138) 
-4.09

>  <cal>  (138) 
-2.69

$$$$
mobley_9407874
     RDKit          3D

 25 24  0  0  0  0  0  0  0  0999 V2000
   -5.2340    4.0320    0.5470 C   0  0  0  0  0  0  0  0  0  0  0  0
   -3.8030    4.0090    0.0360 C   0  0  0  0  0  0  0  0  0  0  0  0
   -3.5020    2.7210   -0.7310 C   0  0  0  0  0  0  0  0  0  0  0  0
   -2.0610    2.7020   -1.2440 C   0  0  0  0  0  0  0  0  0  0  0  0
   -1.7620    1.4110   -2.0110 C   0  0  0  0  0  0  0  0  0  0  0  0
   -0.3310    1.3610   -2.5370 C   0  0  0  0  0  0  0  0  0  0  0  0
   -0.0240    0.0880   -3.2980 C   0  0  0  0  0  0  0  0  0  0  0  0
   -0.8770   -0.7870   -3.4500 O   0  0  0  0  0  0  0  0  0  0  0  0
    1.3580   -0.0610   -3.8790 C   0  0  0  0  0  0  0  0  0  0  0  0
    0.0000    0.0000    0.0000 H   0  0  0  0  0  0  0  0  0  0  0  0
    0.0000    0.0000    0.0000 H   0  0  0  0  0  0  0  0  0  0  0  0
    0.0000    0.0000    0.0000 H   0  0  0  0  0  0  0  0  0  0  0  0
    0.0000    0.0000    0.0000 H   0  0  0  0  0  0  0  0  0  0  0  0
    0.0000    0.0000    0.0000 H   0  0  0  0  0  0  0  0  0  0  0  0
    0.0000    0.0000    0.0000 H   0  0  0  0  0  0  0  0  0  0  0  0
    0.0000    0.0000    0.0000 H   0  0  0  0  0  0  0  0  0  0  0  0
    0.0000    0.0000    0.0000 H   0  0  0  0  0  0  0  0  0  0  0  0
    0.0000    0.0000    0.0000 H   0  0  0  0  0  0  0  0  0  0  0  0
    0.0000    0.0000    0.0000 H   0  0  0  0  0  0  0  0  0  0  0  0
    0.0000    0.0000    0.0000 H   0  0  0  0  0  0  0  0  0  0  0  0
    0.0000    0.0000    0.0000 H   0  0  0  0  0  0  0  0  0  0  0  0
    0.0000    0.0000    0.0000 H   0  0  0  0  0  0  0  0  0  0  0  0
    0.0000    0.0000    0.0000 H   0  0  0  0  0  0  0  0  0  0  0  0
    0.0000    0.0000    0.0000 H   0  0  0  0  0  0  0  0  0  0  0  0
    0.0000    0.0000    0.0000 H   0  0  0  0  0  0  0  0  0  0  0  0
  1  2  1  0
  2  3  1  0
  3  4  1  0
  4  5  1  0
  5  6  1  0
  6  7  1  0
  7  8  2  0
  7  9  1  0
  1 10  1  0
  1 11  1  0
  1 12  1  0
  2 13  1  0
  2 14  1  0
  3 15  1  0
  3 16  1  0
  4 17  1  0
  4 18  1  0
  5 19  1  0
  5 20  1  0
  6 21  1  0
  6 22  1  0
  9 23  1  0
  9 24  1  0
  9 25  1  0
M  END
>  <partial_charges>  (139) 
-0.0917000025511
-0.0798999965191
-0.0789000019431
-0.07689999789
-0.0749000012875
-0.178700000048
0.561600029469
-0.533500015736
-0.20340000093
0.0335000008345
0.0335000008345
0.0335000008345
0.0370999984443
0.0370999984443
0.041400000453
0.041400000453
0.0366000011563
0.0366000011563
0.0540999993682
0.0540999993682
0.063299998641
0.063299998641
0.0636000037193
0.0636000037193
0.0636000037193

>  <partial_bond_orders>  (139) 
1.0
1.0
1.0
1.0
1.0
1.0
2.0
1.0
1.0
1.0
1.0
1.0
1.0
1.0
1.0
1.0
1.0
1.0
1.0
1.0
1.0
1.0
1.0
1.0

>  <atom_types>  (139) 
c3
c3
c3
c3
c3
c3
c
o
c3
hc
hc
hc
hc
hc
hc
hc
hc
hc
hc
hc
hc
hc
hc
hc
hc

>  <target>  (139) 
-2.88

>  <cal>  (139) 
-2.758

$$$$
mobley_2782339
     RDKit          3D

 16 17  0  0  0  0  0  0  0  0999 V2000
   -0.4090   -0.9490   -1.8990 C   0  0  0  0  0  0  0  0  0  0  0  0
   -0.1120   -0.9480   -0.5200 C   0  0  0  0  0  0  0  0  0  0  0  0
    0.0410   -2.1460    0.1840 C   0  0  0  0  0  0  0  0  0  0  0  0
   -0.1120   -3.3170   -0.5290 C   0  0  0  0  0  0  0  0  0  0  0  0
   -0.4040   -3.3180   -1.8860 C   0  0  0  0  0  0  0  0  0  0  0  0
   -0.5590   -2.1490   -2.6010 C   0  0  0  0  0  0  0  0  0  0  0  0
   -0.4960   -4.7100   -2.3260 C   0  0  0  0  0  0  0  0  0  0  0  0
   -0.7390   -5.0650   -3.4640 O   0  0  0  0  0  0  0  0  0  0  0  0
   -0.2550   -5.4680   -1.2060 N   0  0  0  0  0  0  0  0  0  0  0  0
   -0.0150   -4.7070   -0.0860 C   0  0  0  0  0  0  0  0  0  0  0  0
    0.2310   -5.0600    1.0520 O   0  0  0  0  0  0  0  0  0  0  0  0
    0.0000    0.0000    0.0000 H   0  0  0  0  0  0  0  0  0  0  0  0
    0.0000    0.0000    0.0000 H   0  0  0  0  0  0  0  0  0  0  0  0
    0.0000    0.0000    0.0000 H   0  0  0  0  0  0  0  0  0  0  0  0
    0.0000    0.0000    0.0000 H   0  0  0  0  0  0  0  0  0  0  0  0
    0.0000    0.0000    0.0000 H   0  0  0  0  0  0  0  0  0  0  0  0
  1  6  2  0
  1  2  1  0
  2  3  2  0
  3  4  1  0
  4 10  1  0
  4  5  2  0
  5  6  1  0
  5  7  1  0
  7  8  2  0
  7  9  1  0
  9 10  1  0
 10 11  2  0
  1 12  1  0
  2 13  1  0
  3 14  1  0
  6 15  1  0
  9 16  1  0
M  END
>  <partial_charges>  (140) 
-0.117499999702
-0.117499999702
-0.0615999996662
-0.140499994159
-0.140499994159
-0.0615999996662
0.72310000658
-0.570299983025
-0.623000025749
0.72310000658
-0.570299983025
0.144299998879
0.144299998879
0.159700006247
0.159700006247
0.348600000143

>  <partial_bond_orders>  (140) 
2.0
1.0
2.0
1.0
1.0
2.0
1.0
1.0
2.0
1.0
1.0
2.0
1.0
1.0
1.0
1.0
1.0

>  <atom_types>  (140) 
ca
ca
ca
ca
ca
ca
c
o
n
c
o
ha
ha
ha
ha
hn

>  <target>  (140) 
-9.61

>  <cal>  (140) 
-11.825

$$$$
mobley_4964807
     RDKit          3D

 13 12  0  0  0  0  0  0  0  0999 V2000
   -0.4710    0.2910   -0.9330 C   0  0  0  0  0  0  0  0  0  0  0  0
   -1.7470    1.0400   -0.6550 C   0  0  0  0  0  0  0  0  0  0  0  0
   -1.9070    2.1960   -1.0420 O   0  0  0  0  0  0  0  0  0  0  0  0
   -2.8080    0.2890    0.1210 C   0  0  0  0  0  0  0  0  0  0  0  0
   -3.9500    1.0980    0.3140 O   0  0  0  0  0  0  0  0  0  0  0  0
   -4.9960    0.4570    1.0410 N   0  0  0  0  0  0  0  0  0  0  0  0
   -4.7970   -0.7030    1.4120 O   0  0  0  0  0  0  0  0  0  0  0  0
   -5.9850    1.1730    1.2030 O   0  0  0  0  0  0  0  0  0  0  0  0
    0.0000    0.0000    0.0000 H   0  0  0  0  0  0  0  0  0  0  0  0
    0.0000    0.0000    0.0000 H   0  0  0  0  0  0  0  0  0  0  0  0
    0.0000    0.0000    0.0000 H   0  0  0  0  0  0  0  0  0  0  0  0
    0.0000    0.0000    0.0000 H   0  0  0  0  0  0  0  0  0  0  0  0
    0.0000    0.0000    0.0000 H   0  0  0  0  0  0  0  0  0  0  0  0
  1  2  1  0
  2  3  2  0
  2  4  1  0
  4  5  1  0
  5  6  1  0
  6  7  1  0
  6  8  1  0
  1  9  1  0
  1 10  1  0
  1 11  1  0
  4 12  1  0
  4 13  1  0
M  CHG  2   7  -1   8  -1
M  END
>  <partial_charges>  (141) 
-0.204199999571
0.567600011826
-0.475800007582
0.0159000009298
-0.322200000286
0.374599993229
-0.176100000739
-0.176100000739
0.0732000023127
0.0732000023127
0.0732000023127
0.0882000029087
0.0882000029087

>  <partial_bond_orders>  (141) 
1.0
2.0
1.0
1.0
1.0
1.0
1.0
1.0
1.0
1.0
1.0
1.0

>  <atom_types>  (141) 
c3
c
o
c3
os
no
o
o
hc
hc
hc
h1
h1

>  <target>  (141) 
-5.99

>  <cal>  (141) 
-5.362

$$$$
mobley_1922649
     RDKit          3D

 26 26  0  0  0  0  0  0  0  0999 V2000
   -0.0170    0.3800   -0.6300 C   0  0  0  0  0  0  0  0  0  0  0  0
    0.6450   -0.3890   -1.6210 O   0  0  0  0  0  0  0  0  0  0  0  0
   -0.2260   -1.2120   -2.7240 P   0  0  0  0  0  0  0  0  0  0  0  0
   -1.4460   -2.5580   -2.0140 S   0  0  0  0  0  0  0  0  0  0  0  0
    0.9500   -1.7250   -3.7250 O   0  0  0  0  0  0  0  0  0  0  0  0
    1.9860   -2.5550   -3.2280 C   0  0  0  0  0  0  0  0  0  0  0  0
   -0.8840    0.0040   -3.5710 O   0  0  0  0  0  0  0  0  0  0  0  0
   -1.7270   -0.1140   -4.6430 C   0  0  0  0  0  0  0  0  0  0  0  0
   -1.6290   -1.2190   -5.4890 C   0  0  0  0  0  0  0  0  0  0  0  0
   -2.4880   -1.3390   -6.5810 C   0  0  0  0  0  0  0  0  0  0  0  0
   -3.4450   -0.3540   -6.8280 C   0  0  0  0  0  0  0  0  0  0  0  0
   -3.5430    0.7500   -5.9820 C   0  0  0  0  0  0  0  0  0  0  0  0
   -2.6840    0.8710   -4.8890 C   0  0  0  0  0  0  0  0  0  0  0  0
   -4.3190   -0.4770   -7.9400 N   0  0  0  0  0  0  0  0  0  0  0  0
   -5.1730    0.4200   -8.1440 O   0  0  0  0  0  0  0  0  0  0  0  0
   -4.2150   -1.4780   -8.6880 O   0  0  0  0  0  0  0  0  0  0  0  0
    0.0000    0.0000    0.0000 H   0  0  0  0  0  0  0  0  0  0  0  0
    0.0000    0.0000    0.0000 H   0  0  0  0  0  0  0  0  0  0  0  0
    0.0000    0.0000    0.0000 H   0  0  0  0  0  0  0  0  0  0  0  0
    0.0000    0.0000    0.0000 H   0  0  0  0  0  0  0  0  0  0  0  0
    0.0000    0.0000    0.0000 H   0  0  0  0  0  0  0  0  0  0  0  0
    0.0000    0.0000    0.0000 H   0  0  0  0  0  0  0  0  0  0  0  0
    0.0000    0.0000    0.0000 H   0  0  0  0  0  0  0  0  0  0  0  0
    0.0000    0.0000    0.0000 H   0  0  0  0  0  0  0  0  0  0  0  0
    0.0000    0.0000    0.0000 H   0  0  0  0  0  0  0  0  0  0  0  0
    0.0000    0.0000    0.0000 H   0  0  0  0  0  0  0  0  0  0  0  0
  1  2  1  0
  2  3  1  0
  3  4  2  0
  3  5  1  0
  5  6  1  0
  3  7  1  0
  7  8  1  0
  8 13  2  0
  8  9  1  0
  9 10  2  0
 10 11  1  0
 11 12  2  0
 12 13  1  0
 11 14  1  0
 14 15  1  0
 14 16  1  0
  1 17  1  0
  1 18  1  0
  1 19  1  0
  6 20  1  0
  6 21  1  0
  6 22  1  0
  9 23  1  0
 10 24  1  0
 12 25  1  0
 13 26  1  0
M  CHG  2  15  -1  16  -1
M  END
>  <partial_charges>  (142) 
0.141100004315
-0.530099987984
1.23619997501
-0.587899982929
-0.530099987984
0.141100004315
-0.46439999342
0.16590000689
-0.143700003624
-0.0549000017345
-0.177799999714
-0.0549000017345
-0.143700003624
0.314200013876
-0.202299997211
-0.202299997211
0.0649999976158
0.0649999976158
0.0649999976158
0.0649999976158
0.0649999976158
0.0649999976158
0.172600001097
0.179399996996
0.179399996996
0.172600001097

>  <partial_bond_orders>  (142) 
1.0
1.0
2.0
1.0
1.0
1.0
1.0
2.0
1.0
2.0
1.0
2.0
1.0
1.0
1.0
1.0
1.0
1.0
1.0
1.0
1.0
1.0
1.0
1.0
1.0
1.0

>  <atom_types>  (142) 
c3
os
p5
s
os
c3
os
ca
ca
ca
ca
ca
ca
no
o
o
h1
h1
h1
h1
h1
h1
ha
ha
ha
ha

>  <target>  (142) 
-7.19

>  <cal>  (142) 
-10.466

$$$$
mobley_1717215
     RDKit          3D

  8  7  0  0  0  0  0  0  0  0999 V2000
    0.3500   -1.0340    0.0710 C   0  0  0  0  0  0  0  0  0  0  0  0
    1.5790   -1.1920   -0.6450 O   0  0  0  0  0  0  0  0  0  0  0  0
    1.5120   -0.9360   -1.9770 C   0  0  0  0  0  0  0  0  0  0  0  0
    0.5330   -0.5920   -2.6210 O   0  0  0  0  0  0  0  0  0  0  0  0
    0.0000    0.0000    0.0000 H   0  0  0  0  0  0  0  0  0  0  0  0
    0.0000    0.0000    0.0000 H   0  0  0  0  0  0  0  0  0  0  0  0
    0.0000    0.0000    0.0000 H   0  0  0  0  0  0  0  0  0  0  0  0
    0.0000    0.0000    0.0000 H   0  0  0  0  0  0  0  0  0  0  0  0
  1  2  1  0
  2  3  1  0
  3  4  2  0
  1  5  1  0
  1  6  1  0
  1  7  1  0
  3  8  1  0
M  END
>  <partial_charges>  (143) 
0.123599998653
-0.449900001287
0.62760001421
-0.537999987602
0.0516999997199
0.0516999997199
0.0516999997199
0.0816000029445

>  <partial_bond_orders>  (143) 
1.0
1.0
2.0
1.0
1.0
1.0
1.0

>  <atom_types>  (143) 
c3
os
c
o
h1
h1
h1
h5

>  <target>  (143) 
-2.78

>  <cal>  (143) 
-4.028

$$$$
mobley_129464
     RDKit          3D

 27 26  0  0  0  0  0  0  0  0999 V2000
    0.7030   -2.2330   -0.7710 C   0  0  0  0  0  0  0  0  0  0  0  0
   -0.4190   -2.6450    0.1680 C   0  0  0  0  0  0  0  0  0  0  0  0
   -1.7780   -2.5830   -0.5230 C   0  0  0  0  0  0  0  0  0  0  0  0
   -2.9050   -2.9950    0.4140 C   0  0  0  0  0  0  0  0  0  0  0  0
   -4.1380   -2.9160   -0.2880 O   0  0  0  0  0  0  0  0  0  0  0  0
   -5.2330   -3.2900    0.5370 C   0  0  0  0  0  0  0  0  0  0  0  0
   -6.5170   -3.1830   -0.2730 C   0  0  0  0  0  0  0  0  0  0  0  0
   -7.7390   -3.5720    0.5550 C   0  0  0  0  0  0  0  0  0  0  0  0
   -9.0190   -3.4640   -0.2570 C   0  0  0  0  0  0  0  0  0  0  0  0
    0.0000    0.0000    0.0000 H   0  0  0  0  0  0  0  0  0  0  0  0
    0.0000    0.0000    0.0000 H   0  0  0  0  0  0  0  0  0  0  0  0
    0.0000    0.0000    0.0000 H   0  0  0  0  0  0  0  0  0  0  0  0
    0.0000    0.0000    0.0000 H   0  0  0  0  0  0  0  0  0  0  0  0
    0.0000    0.0000    0.0000 H   0  0  0  0  0  0  0  0  0  0  0  0
    0.0000    0.0000    0.0000 H   0  0  0  0  0  0  0  0  0  0  0  0
    0.0000    0.0000    0.0000 H   0  0  0  0  0  0  0  0  0  0  0  0
    0.0000    0.0000    0.0000 H   0  0  0  0  0  0  0  0  0  0  0  0
    0.0000    0.0000    0.0000 H   0  0  0  0  0  0  0  0  0  0  0  0
    0.0000    0.0000    0.0000 H   0  0  0  0  0  0  0  0  0  0  0  0
    0.0000    0.0000    0.0000 H   0  0  0  0  0  0  0  0  0  0  0  0
    0.0000    0.0000    0.0000 H   0  0  0  0  0  0  0  0  0  0  0  0
    0.0000    0.0000    0.0000 H   0  0  0  0  0  0  0  0  0  0  0  0
    0.0000    0.0000    0.0000 H   0  0  0  0  0  0  0  0  0  0  0  0
    0.0000    0.0000    0.0000 H   0  0  0  0  0  0  0  0  0  0  0  0
    0.0000    0.0000    0.0000 H   0  0  0  0  0  0  0  0  0  0  0  0
    0.0000    0.0000    0.0000 H   0  0  0  0  0  0  0  0  0  0  0  0
    0.0000    0.0000    0.0000 H   0  0  0  0  0  0  0  0  0  0  0  0
  1  2  1  0
  2  3  1  0
  3  4  1  0
  4  5  1  0
  5  6  1  0
  6  7  1  0
  7  8  1  0
  8  9  1  0
  1 10  1  0
  1 11  1  0
  1 12  1  0
  2 13  1  0
  2 14  1  0
  3 15  1  0
  3 16  1  0
  4 17  1  0
  4 18  1  0
  6 19  1  0
  6 20  1  0
  7 21  1  0
  7 22  1  0
  8 23  1  0
  8 24  1  0
  9 25  1  0
  9 26  1  0
  9 27  1  0
M  END
>  <partial_charges>  (144) 
-0.091899998486
-0.0782999992371
-0.0841000005603
0.131799995899
-0.424699991941
0.131799995899
-0.0841000005603
-0.0782999992371
-0.0917999967933
0.0344000011683
0.0344000011683
0.0344000011683
0.0381000004709
0.0381000004709
0.0538000017405
0.0538000017405
0.0238000005484
0.0238000005484
0.0238000005484
0.0238000005484
0.0538000017405
0.0538000017405
0.0381000004709
0.0381000004709
0.0344000011683
0.0344000011683
0.0344000011683

>  <partial_bond_orders>  (144) 
1.0
1.0
1.0
1.0
1.0
1.0
1.0
1.0
1.0
1.0
1.0
1.0
1.0
1.0
1.0
1.0
1.0
1.0
1.0
1.0
1.0
1.0
1.0
1.0
1.0
1.0

>  <atom_types>  (144) 
c3
c3
c3
c3
os
c3
c3
c3
c3
hc
hc
hc
hc
hc
hc
hc
h1
h1
h1
h1
hc
hc
hc
hc
hc
hc
hc

>  <target>  (144) 
-0.83

>  <cal>  (144) 
0.139

$$$$
mobley_9653690
     RDKit          3D

 27 27  0  0  1  0  0  0  0  0999 V2000
   -3.7290   -4.7830    2.2230 C   0  0  0  0  0  0  0  0  0  0  0  0
   -2.7240   -3.8100    1.6750 C   0  0  0  0  0  0  0  0  0  0  0  0
   -2.8630   -2.4850    1.8510 C   0  0  0  0  0  0  0  0  0  0  0  0
   -1.9050   -1.4630    1.3100 C   0  0  0  0  0  0  0  0  0  0  0  0
   -0.9330   -2.0300    0.2630 C   0  0  0  0  0  0  0  0  0  0  0  0
   -0.3990   -3.3940    0.7230 C   0  0  0  0  0  0  0  0  0  0  0  0
   -1.5410   -4.3970    0.9430 C   0  0  0  0  0  0  0  0  0  0  0  0
   -1.9670   -4.8760   -0.3330 O   0  0  0  0  0  0  0  0  0  0  0  0
    0.1870   -1.0690   -0.0010 C   0  0  0  0  0  0  0  0  0  0  0  0
    1.0230   -0.6700    0.9690 C   0  0  0  0  0  0  0  0  0  0  0  0
    0.3200   -0.5780   -1.4130 C   0  0  0  0  0  0  0  0  0  0  0  0
    0.0000    0.0000    0.0000 H   0  0  0  0  0  0  0  0  0  0  0  0
    0.0000    0.0000    0.0000 H   0  0  0  0  0  0  0  0  0  0  0  0
    0.0000    0.0000    0.0000 H   0  0  0  0  0  0  0  0  0  0  0  0
    0.0000    0.0000    0.0000 H   0  0  0  0  0  0  0  0  0  0  0  0
    0.0000    0.0000    0.0000 H   0  0  0  0  0  0  0  0  0  0  0  0
    0.0000    0.0000    0.0000 H   0  0  0  0  0  0  0  0  0  0  0  0
    0.0000    0.0000    0.0000 H   0  0  0  0  0  0  0  0  0  0  0  0
    0.0000    0.0000    0.0000 H   0  0  0  0  0  0  0  0  0  0  0  0
    0.0000    0.0000    0.0000 H   0  0  0  0  0  0  0  0  0  0  0  0
    0.0000    0.0000    0.0000 H   0  0  0  0  0  0  0  0  0  0  0  0
    0.0000    0.0000    0.0000 H   0  0  0  0  0  0  0  0  0  0  0  0
    0.0000    0.0000    0.0000 H   0  0  0  0  0  0  0  0  0  0  0  0
    0.0000    0.0000    0.0000 H   0  0  0  0  0  0  0  0  0  0  0  0
    0.0000    0.0000    0.0000 H   0  0  0  0  0  0  0  0  0  0  0  0
    0.0000    0.0000    0.0000 H   0  0  0  0  0  0  0  0  0  0  0  0
    0.0000    0.0000    0.0000 H   0  0  0  0  0  0  0  0  0  0  0  0
  1  2  1  0
  2  7  1  0
  2  3  2  0
  3  4  1  0
  4  5  1  0
  5  6  1  0
  6  7  1  0
  7  8  1  0
  5  9  1  0
  9 10  2  3
  9 11  1  0
  1 12  1  0
  1 13  1  0
  1 14  1  0
  3 15  1  0
  4 16  1  0
  4 17  1  0
  5 18  1  0
  6 19  1  0
  6 20  1  0
  7 21  1  0
  8 22  1  0
 10 23  1  0
 10 24  1  0
 11 25  1  0
 11 26  1  0
 11 27  1  0
M  END
>  <partial_charges>  (145) 
-0.0564999990165
-0.108000002801
-0.155000001192
-0.0430000014603
-0.0267999991775
0.0654999986291
-0.102700002491
0.181099995971
0.0344999991357
-0.593900024891
-0.107799999416
-0.225700005889
-0.0637999996543
0.0441999994218
0.0441999994218
0.0441999994218
0.122599996626
0.0524000003934
0.0524000003934
0.0474000014365
0.0474000014365
0.396899998188
0.112800002098
0.112800002098
0.041700001806
0.041700001806
0.041700001806

>  <partial_bond_orders>  (145) 
1.0
1.0
2.0
1.0
1.0
1.0
1.0
1.0
1.0
1.0
1.0
2.0
1.0
1.0
1.0
1.0
1.0
1.0
1.0
1.0
1.0
1.0
1.0
1.0
1.0
1.0
1.0

>  <atom_types>  (145) 
c3
c2
c2
c3
c3
hc
c3
c3
h1
oh
c2
c2
c3
hc
hc
hc
ha
hc
hc
hc
hc
ho
ha
ha
hc
hc
hc

>  <target>  (145) 
-4.44

>  <cal>  (145) 
-3.257

$$$$
mobley_3259411
     RDKit          3D

 14 13  0  0  0  0  0  0  0  0999 V2000
    0.9860    0.2570   -2.5350 C   0  0  0  0  0  0  0  0  0  0  0  0
    1.1440    1.2330   -1.3740 C   0  0  0  0  0  0  0  0  0  0  0  0
    0.9520    0.5380   -0.0330 C   0  0  0  0  0  0  0  0  0  0  0  0
    1.1110    1.4950    1.0100 O   0  0  0  0  0  0  0  0  0  0  0  0
    2.4670    1.7730   -1.4060 O   0  0  0  0  0  0  0  0  0  0  0  0
    1.1710    0.9410   -3.7700 O   0  0  0  0  0  0  0  0  0  0  0  0
    0.0000    0.0000    0.0000 H   0  0  0  0  0  0  0  0  0  0  0  0
    0.0000    0.0000    0.0000 H   0  0  0  0  0  0  0  0  0  0  0  0
    0.0000    0.0000    0.0000 H   0  0  0  0  0  0  0  0  0  0  0  0
    0.0000    0.0000    0.0000 H   0  0  0  0  0  0  0  0  0  0  0  0
    0.0000    0.0000    0.0000 H   0  0  0  0  0  0  0  0  0  0  0  0
    0.0000    0.0000    0.0000 H   0  0  0  0  0  0  0  0  0  0  0  0
    0.0000    0.0000    0.0000 H   0  0  0  0  0  0  0  0  0  0  0  0
    0.0000    0.0000    0.0000 H   0  0  0  0  0  0  0  0  0  0  0  0
  1  2  1  0
  2  3  1  0
  3  4  1  0
  2  5  1  0
  1  6  1  0
  1  7  1  0
  1  8  1  0
  2  9  1  0
  3 10  1  0
  3 11  1  0
  4 12  1  0
  5 13  1  0
  6 14  1  0
M  END
>  <partial_charges>  (146) 
0.112300001085
0.104999996722
0.112300001085
-0.603600025177
-0.608299970627
-0.603600025177
0.0445000007749
0.0445000007749
0.0628999993205
0.0445000007749
0.0445000007749
0.410499989986
0.424199998379
0.410499989986

>  <partial_bond_orders>  (146) 
1.0
1.0
1.0
1.0
1.0
1.0
1.0
1.0
1.0
1.0
1.0
1.0
1.0

>  <atom_types>  (146) 
c3
c3
c3
oh
oh
oh
h1
h1
h1
h1
h1
ho
ho
ho

>  <target>  (146) 
-13.43

>  <cal>  (146) 
-10.14

$$$$
mobley_2410897
     RDKit          3D

 10  9  0  0  0  0  0  0  0  0999 V2000
    0.4070    0.1870    0.9990 C   0  0  0  0  0  0  0  0  0  0  0  0
    1.2110   -0.9760    1.4720 C   0  0  0  0  0  0  0  0  0  0  0  0
    2.3150   -1.2360    0.5900 N   0  0  0  0  0  0  0  0  0  0  0  0
    0.0000    0.0000    0.0000 H   0  0  0  0  0  0  0  0  0  0  0  0
    0.0000    0.0000    0.0000 H   0  0  0  0  0  0  0  0  0  0  0  0
    0.0000    0.0000    0.0000 H   0  0  0  0  0  0  0  0  0  0  0  0
    0.0000    0.0000    0.0000 H   0  0  0  0  0  0  0  0  0  0  0  0
    0.0000    0.0000    0.0000 H   0  0  0  0  0  0  0  0  0  0  0  0
    0.0000    0.0000    0.0000 H   0  0  0  0  0  0  0  0  0  0  0  0
    0.0000    0.0000    0.0000 H   0  0  0  0  0  0  0  0  0  0  0  0
  1  2  1  0
  2  3  1  0
  1  4  1  0
  1  5  1  0
  1  6  1  0
  2  7  1  0
  2  8  1  0
  3  9  1  0
  3 10  1  0
M  END
>  <partial_charges>  (147) 
-0.13789999485
0.147900000215
-0.904399991035
0.0359000004828
0.0359000004828
0.0359000004828
0.0509000010788
0.0509000010788
0.3424000144
0.3424000144

>  <partial_bond_orders>  (147) 
1.0
1.0
1.0
1.0
1.0
1.0
1.0
1.0
1.0

>  <atom_types>  (147) 
c3
c3
n3
hc
hc
hc
h1
h1
hn
hn

>  <target>  (147) 
-4.5

>  <cal>  (147) 
-3.156

$$$$
mobley_9414831
     RDKit          3D

 21 22  0  0  0  0  0  0  0  0999 V2000
   -1.0090   -4.3870    1.0440 C   0  0  0  0  0  0  0  0  0  0  0  0
   -0.0480   -3.3540    0.5450 C   0  0  0  0  0  0  0  0  0  0  0  0
   -0.4970   -2.0340    0.4940 C   0  0  0  0  0  0  0  0  0  0  0  0
    0.3500   -1.0280    0.0390 C   0  0  0  0  0  0  0  0  0  0  0  0
    1.6480   -1.3370   -0.3660 C   0  0  0  0  0  0  0  0  0  0  0  0
    2.1170   -2.6600   -0.3220 C   0  0  0  0  0  0  0  0  0  0  0  0
    1.2560   -3.6840    0.1400 C   0  0  0  0  0  0  0  0  0  0  0  0
    1.7240   -5.0070    0.1850 C   0  0  0  0  0  0  0  0  0  0  0  0
    3.0230   -5.3170   -0.2210 C   0  0  0  0  0  0  0  0  0  0  0  0
    3.8690   -4.3100   -0.6760 C   0  0  0  0  0  0  0  0  0  0  0  0
    3.4210   -2.9900   -0.7270 C   0  0  0  0  0  0  0  0  0  0  0  0
    0.0000    0.0000    0.0000 H   0  0  0  0  0  0  0  0  0  0  0  0
    0.0000    0.0000    0.0000 H   0  0  0  0  0  0  0  0  0  0  0  0
    0.0000    0.0000    0.0000 H   0  0  0  0  0  0  0  0  0  0  0  0
    0.0000    0.0000    0.0000 H   0  0  0  0  0  0  0  0  0  0  0  0
    0.0000    0.0000    0.0000 H   0  0  0  0  0  0  0  0  0  0  0  0
    0.0000    0.0000    0.0000 H   0  0  0  0  0  0  0  0  0  0  0  0
    0.0000    0.0000    0.0000 H   0  0  0  0  0  0  0  0  0  0  0  0
    0.0000    0.0000    0.0000 H   0  0  0  0  0  0  0  0  0  0  0  0
    0.0000    0.0000    0.0000 H   0  0  0  0  0  0  0  0  0  0  0  0
    0.0000    0.0000    0.0000 H   0  0  0  0  0  0  0  0  0  0  0  0
  1  2  1  0
  2  7  2  0
  2  3  1  0
  3  4  2  0
  4  5  1  0
  5  6  2  0
  6 11  1  0
  6  7  1  0
  7  8  1  0
  8  9  2  0
  9 10  1  0
 10 11  2  0
  1 12  1  0
  1 13  1  0
  1 14  1  0
  3 15  1  0
  4 16  1  0
  5 17  1  0
  8 18  1  0
  9 19  1  0
 10 20  1  0
 11 21  1  0
M  END
>  <partial_charges>  (148) 
-0.0566000007093
-0.0628999993205
-0.134000003338
-0.123000003397
-0.122800000012
-0.0335999988019
-0.0296000000089
-0.118100002408
-0.12839999795
-0.128299996257
-0.118600003421
0.0450000017881
0.0450000017881
0.0450000017881
0.130600005388
0.132400006056
0.131200000644
0.132699996233
0.131500005722
0.131099998951
0.131500005722

>  <partial_bond_orders>  (148) 
1.0
2.0
1.0
2.0
1.0
2.0
1.0
1.0
1.0
2.0
1.0
2.0
1.0
1.0
1.0
1.0
1.0
1.0
1.0
1.0
1.0
1.0

>  <atom_types>  (148) 
c3
ca
ca
ca
ca
ca
ca
ca
ca
ca
ca
hc
hc
hc
ha
ha
ha
ha
ha
ha
ha

>  <target>  (148) 
-2.44

>  <cal>  (148) 
-3.212

$$$$
mobley_4884177
     RDKit          3D

 17 17  0  0  0  0  0  0  0  0999 V2000
    2.6690    0.9360    4.5560 C   0  0  0  0  0  0  0  0  0  0  0  0
    2.8850   -0.2670    3.6510 C   0  0  0  0  0  0  0  0  0  0  0  0
    1.6520   -0.6230    2.9000 C   0  0  0  0  0  0  0  0  0  0  0  0
    1.3880   -0.0680    1.6520 C   0  0  0  0  0  0  0  0  0  0  0  0
    0.2270   -0.4200    0.9730 C   0  0  0  0  0  0  0  0  0  0  0  0
   -0.6320   -1.3220    1.5800 C   0  0  0  0  0  0  0  0  0  0  0  0
   -0.4090   -1.8820    2.7910 N   0  0  0  0  0  0  0  0  0  0  0  0
    0.7300   -1.5160    3.4210 C   0  0  0  0  0  0  0  0  0  0  0  0
    0.0000    0.0000    0.0000 H   0  0  0  0  0  0  0  0  0  0  0  0
    0.0000    0.0000    0.0000 H   0  0  0  0  0  0  0  0  0  0  0  0
    0.0000    0.0000    0.0000 H   0  0  0  0  0  0  0  0  0  0  0  0
    0.0000    0.0000    0.0000 H   0  0  0  0  0  0  0  0  0  0  0  0
    0.0000    0.0000    0.0000 H   0  0  0  0  0  0  0  0  0  0  0  0
    0.0000    0.0000    0.0000 H   0  0  0  0  0  0  0  0  0  0  0  0
    0.0000    0.0000    0.0000 H   0  0  0  0  0  0  0  0  0  0  0  0
    0.0000    0.0000    0.0000 H   0  0  0  0  0  0  0  0  0  0  0  0
    0.0000    0.0000    0.0000 H   0  0  0  0  0  0  0  0  0  0  0  0
  1  2  1  0
  2  3  1  0
  3  8  2  0
  3  4  1  0
  4  5  2  0
  5  6  1  0
  6  7  2  0
  7  8  1  0
  1  9  1  0
  1 10  1  0
  1 11  1  0
  2 12  1  0
  2 13  1  0
  4 14  1  0
  5 15  1  0
  6 16  1  0
  8 17  1  0
M  END
>  <partial_charges>  (149) 
-0.0901999995112
-0.0348000004888
-0.191899999976
-0.0936999991536
-0.243699997663
0.388700008392
-0.663500010967
0.395700007677
0.0377999991179
0.0377999991179
0.0377999991179
0.048599999398
0.048599999398
0.13750000298
0.142599999905
0.0208000000566
0.0218000002205

>  <partial_bond_orders>  (149) 
1.0
1.0
2.0
1.0
2.0
1.0
2.0
1.0
1.0
1.0
1.0
1.0
1.0
1.0
1.0
1.0
1.0

>  <atom_types>  (149) 
c3
c3
ca
ca
ca
ca
nb
ca
hc
hc
hc
hc
hc
ha
ha
h4
h4

>  <target>  (149) 
-4.59

>  <cal>  (149) 
-2.965

$$$$
mobley_4483973
     RDKit          3D

 12 12  0  0  0  0  0  0  0  0999 V2000
    1.8850   -1.0360   -0.1120 C   0  0  0  0  0  0  0  0  0  0  0  0
    2.9210   -1.6310    0.6080 C   0  0  0  0  0  0  0  0  0  0  0  0
    2.8780   -1.6520    2.0020 C   0  0  0  0  0  0  0  0  0  0  0  0
    1.8000   -1.0790    2.6760 C   0  0  0  0  0  0  0  0  0  0  0  0
    0.7640   -0.4840    1.9550 C   0  0  0  0  0  0  0  0  0  0  0  0
    0.8070   -0.4630    0.5610 C   0  0  0  0  0  0  0  0  0  0  0  0
    1.7580   -1.0990    4.0140 F   0  0  0  0  0  0  0  0  0  0  0  0
    0.0000    0.0000    0.0000 H   0  0  0  0  0  0  0  0  0  0  0  0
    0.0000    0.0000    0.0000 H   0  0  0  0  0  0  0  0  0  0  0  0
    0.0000    0.0000    0.0000 H   0  0  0  0  0  0  0  0  0  0  0  0
    0.0000    0.0000    0.0000 H   0  0  0  0  0  0  0  0  0  0  0  0
    0.0000    0.0000    0.0000 H   0  0  0  0  0  0  0  0  0  0  0  0
  1  6  2  0
  1  2  1  0
  2  3  2  0
  3  4  1  0
  4  5  2  0
  5  6  1  0
  4  7  1  0
  1  8  1  0
  2  9  1  0
  3 10  1  0
  5 11  1  0
  6 12  1  0
M  END
>  <partial_charges>  (150) 
-0.144999995828
-0.1053000018
-0.165500000119
0.123700000346
-0.165500000119
-0.1053000018
-0.142399996519
0.135900005698
0.136800006032
0.147900000215
0.147900000215
0.136800006032

>  <partial_bond_orders>  (150) 
2.0
1.0
2.0
1.0
2.0
1.0
1.0
1.0
1.0
1.0
1.0
1.0

>  <atom_types>  (150) 
ca
ca
ca
ca
ca
ca
f
ha
ha
ha
ha
ha

>  <target>  (150) 
-0.8

>  <cal>  (150) 
-0.041

$$$$
mobley_4287564
     RDKit          3D

 14 14  0  0  0  0  0  0  0  0999 V2000
    0.9810   -2.1300    4.7570 C   0  0  0  0  0  0  0  0  0  0  0  0
    0.7300   -1.5160    3.4210 C   0  0  0  0  0  0  0  0  0  0  0  0
    1.6520   -0.6230    2.9000 C   0  0  0  0  0  0  0  0  0  0  0  0
    1.3880   -0.0680    1.6520 C   0  0  0  0  0  0  0  0  0  0  0  0
    0.2270   -0.4200    0.9730 C   0  0  0  0  0  0  0  0  0  0  0  0
   -0.6320   -1.3220    1.5800 C   0  0  0  0  0  0  0  0  0  0  0  0
   -0.4090   -1.8820    2.7910 N   0  0  0  0  0  0  0  0  0  0  0  0
    0.0000    0.0000    0.0000 H   0  0  0  0  0  0  0  0  0  0  0  0
    0.0000    0.0000    0.0000 H   0  0  0  0  0  0  0  0  0  0  0  0
    0.0000    0.0000    0.0000 H   0  0  0  0  0  0  0  0  0  0  0  0
    0.0000    0.0000    0.0000 H   0  0  0  0  0  0  0  0  0  0  0  0
    0.0000    0.0000    0.0000 H   0  0  0  0  0  0  0  0  0  0  0  0
    0.0000    0.0000    0.0000 H   0  0  0  0  0  0  0  0  0  0  0  0
    0.0000    0.0000    0.0000 H   0  0  0  0  0  0  0  0  0  0  0  0
  1  2  1  0
  2  7  2  0
  2  3  1  0
  3  4  2  0
  4  5  1  0
  5  6  2  0
  6  7  1  0
  1  8  1  0
  1  9  1  0
  1 10  1  0
  3 11  1  0
  4 12  1  0
  5 13  1  0
  6 14  1  0
M  END
>  <partial_charges>  (151) 
-0.150700002909
0.411300003529
-0.247899994254
-0.0895999968052
-0.254000008106
0.399800002575
-0.670099973679
0.0531999990344
0.0531999990344
0.0531999990344
0.142100006342
0.136399999261
0.142100006342
0.021099999547

>  <partial_bond_orders>  (151) 
1.0
2.0
1.0
2.0
1.0
2.0
1.0
1.0
1.0
1.0
1.0
1.0
1.0
1.0

>  <atom_types>  (151) 
c3
ca
ca
ca
ca
ca
nb
hc
hc
hc
ha
ha
ha
h4

>  <target>  (151) 
-4.63

>  <cal>  (151) 
-3.501

$$$$
mobley_4338603
     RDKit          3D

 12 12  0  0  0  0  0  0  0  0999 V2000
    1.2400    0.6630   -0.0110 C   0  0  0  0  0  0  0  0  0  0  0  0
    0.1870    1.1380    0.9210 C   0  0  0  0  0  0  0  0  0  0  0  0
    0.3940    2.0910    1.6670 O   0  0  0  0  0  0  0  0  0  0  0  0
   -1.0060    0.4290    0.8680 N   0  0  0  0  0  0  0  0  0  0  0  0
   -1.2830   -0.6600    0.0340 C   0  0  0  0  0  0  0  0  0  0  0  0
   -2.3670   -1.2440    0.0400 O   0  0  0  0  0  0  0  0  0  0  0  0
   -0.2330   -1.0240   -0.7970 N   0  0  0  0  0  0  0  0  0  0  0  0
    0.9690   -0.3760   -0.8030 C   0  0  0  0  0  0  0  0  0  0  0  0
    2.0990   -1.0170   -1.9190 Cl  0  0  0  0  0  0  0  0  0  0  0  0
    0.0000    0.0000    0.0000 H   0  0  0  0  0  0  0  0  0  0  0  0
    0.0000    0.0000    0.0000 H   0  0  0  0  0  0  0  0  0  0  0  0
    0.0000    0.0000    0.0000 H   0  0  0  0  0  0  0  0  0  0  0  0
  1  8  2  0
  1  2  1  0
  2  3  2  0
  2  4  1  0
  4  5  1  0
  5  6  2  0
  5  7  1  0
  7  8  1  0
  8  9  1  0
  1 10  1  0
  4 11  1  0
  7 12  1  0
M  END
>  <partial_charges>  (152) 
-0.301299989223
0.714299976826
-0.596400022507
-0.583999991417
0.812300026417
-0.625899970531
-0.476799994707
0.18979999423
-0.0469000004232
0.19280000031
0.3587000072
0.363299995661

>  <partial_bond_orders>  (152) 
2.0
1.0
2.0
1.0
1.0
2.0
1.0
1.0
1.0
1.0
1.0
1.0

>  <atom_types>  (152) 
cc
c
o
n
c
o
n
cd
cl
ha
hn
hn

>  <target>  (152) 
-15.83

>  <cal>  (152) 
-15.128

$$$$
mobley_3802803
     RDKit          3D

 23 22  0  0  0  0  0  0  0  0999 V2000
    1.7560   -1.3900    0.8920 C   0  0  0  0  0  0  0  0  0  0  0  0
    1.1580   -1.8700    2.2060 C   0  0  0  0  0  0  0  0  0  0  0  0
   -0.1230   -1.1070    2.5460 C   0  0  0  0  0  0  0  0  0  0  0  0
   -0.7660   -1.5520    3.8620 C   0  0  0  0  0  0  0  0  0  0  0  0
   -2.0460   -0.7900    4.2020 C   0  0  0  0  0  0  0  0  0  0  0  0
   -2.6480   -1.2670    5.5170 C   0  0  0  0  0  0  0  0  0  0  0  0
   -3.8300   -0.5240    5.7780 O   0  0  0  0  0  0  0  0  0  0  0  0
   -4.4780   -0.8910    6.9900 N   0  0  0  0  0  0  0  0  0  0  0  0
   -3.9620   -1.7850    7.6640 O   0  0  0  0  0  0  0  0  0  0  0  0
   -5.5000   -0.2380    7.2040 O   0  0  0  0  0  0  0  0  0  0  0  0
    0.0000    0.0000    0.0000 H   0  0  0  0  0  0  0  0  0  0  0  0
    0.0000    0.0000    0.0000 H   0  0  0  0  0  0  0  0  0  0  0  0
    0.0000    0.0000    0.0000 H   0  0  0  0  0  0  0  0  0  0  0  0
    0.0000    0.0000    0.0000 H   0  0  0  0  0  0  0  0  0  0  0  0
    0.0000    0.0000    0.0000 H   0  0  0  0  0  0  0  0  0  0  0  0
    0.0000    0.0000    0.0000 H   0  0  0  0  0  0  0  0  0  0  0  0
    0.0000    0.0000    0.0000 H   0  0  0  0  0  0  0  0  0  0  0  0
    0.0000    0.0000    0.0000 H   0  0  0  0  0  0  0  0  0  0  0  0
    0.0000    0.0000    0.0000 H   0  0  0  0  0  0  0  0  0  0  0  0
    0.0000    0.0000    0.0000 H   0  0  0  0  0  0  0  0  0  0  0  0
    0.0000    0.0000    0.0000 H   0  0  0  0  0  0  0  0  0  0  0  0
    0.0000    0.0000    0.0000 H   0  0  0  0  0  0  0  0  0  0  0  0
    0.0000    0.0000    0.0000 H   0  0  0  0  0  0  0  0  0  0  0  0
  1  2  1  0
  2  3  1  0
  3  4  1  0
  4  5  1  0
  5  6  1  0
  6  7  1  0
  7  8  1  0
  8  9  1  0
  8 10  1  0
  1 11  1  0
  1 12  1  0
  1 13  1  0
  2 14  1  0
  2 15  1  0
  3 16  1  0
  3 17  1  0
  4 18  1  0
  4 19  1  0
  5 20  1  0
  5 21  1  0
  6 22  1  0
  6 23  1  0
M  CHG  2   9  -1  10  -1
M  END
>  <partial_charges>  (153) 
-0.0909999981523
-0.0865999981761
-0.0812999978662
-0.0740000009537
-0.11400000006
0.130700007081
-0.346100002527
0.374000012875
-0.185699999332
-0.185699999332
0.0337000004947
0.0337000004947
0.0337000004947
0.0469000004232
0.0469000004232
0.0388999991119
0.0388999991119
0.0452999994159
0.0452999994159
0.0625
0.0625
0.0856000036001
0.0856000036001

>  <partial_bond_orders>  (153) 
1.0
1.0
1.0
1.0
1.0
1.0
1.0
1.0
1.0
1.0
1.0
1.0
1.0
1.0
1.0
1.0
1.0
1.0
1.0
1.0
1.0
1.0

>  <atom_types>  (153) 
c3
c3
c3
c3
c3
c3
os
no
o
o
hc
hc
hc
hc
hc
hc
hc
hc
hc
hc
hc
h1
h1

>  <target>  (153) 
-1.66

>  <cal>  (153) 
-1.596

$$$$
mobley_1896013
     RDKit          3D

 20 20  0  0  1  0  0  0  0  0999 V2000
    0.3520   -0.7180   -0.7490 C   0  0  0  0  0  0  0  0  0  0  0  0
    0.3580   -2.1200   -0.1520 C   0  0  0  0  0  0  0  0  0  0  0  0
    0.9790   -3.1310   -1.1190 C   0  0  0  0  0  0  0  0  0  0  0  0
    2.3190   -2.6090   -1.6400 C   0  0  0  0  0  0  0  0  0  0  0  0
    2.2080   -1.1750   -2.1650 C   0  0  0  0  0  0  0  0  0  0  0  0
    1.6550   -0.3160   -1.1640 O   0  0  0  0  0  0  0  0  0  0  0  0
    1.4910   -1.0970   -3.3960 O   0  0  0  0  0  0  0  0  0  0  0  0
    2.8090   -3.4530   -2.6760 O   0  0  0  0  0  0  0  0  0  0  0  0
    1.2210   -4.3590   -0.4300 O   0  0  0  0  0  0  0  0  0  0  0  0
   -0.9850   -2.4860    0.1440 O   0  0  0  0  0  0  0  0  0  0  0  0
    0.0000    0.0000    0.0000 H   0  0  0  0  0  0  0  0  0  0  0  0
    0.0000    0.0000    0.0000 H   0  0  0  0  0  0  0  0  0  0  0  0
    0.0000    0.0000    0.0000 H   0  0  0  0  0  0  0  0  0  0  0  0
    0.0000    0.0000    0.0000 H   0  0  0  0  0  0  0  0  0  0  0  0
    0.0000    0.0000    0.0000 H   0  0  0  0  0  0  0  0  0  0  0  0
    0.0000    0.0000    0.0000 H   0  0  0  0  0  0  0  0  0  0  0  0
    0.0000    0.0000    0.0000 H   0  0  0  0  0  0  0  0  0  0  0  0
    0.0000    0.0000    0.0000 H   0  0  0  0  0  0  0  0  0  0  0  0
    0.0000    0.0000    0.0000 H   0  0  0  0  0  0  0  0  0  0  0  0
    0.0000    0.0000    0.0000 H   0  0  0  0  0  0  0  0  0  0  0  0
  1  6  1  0
  1  2  1  0
  2  3  1  0
  3  4  1  0
  4  5  1  0
  5  6  1  0
  5  7  1  0
  4  8  1  0
  3  9  1  0
  2 10  1  0
  1 11  1  0
  1 12  1  0
  2 13  1  0
  3 14  1  0
  4 15  1  0
  5 16  1  0
  7 17  1  0
  8 18  1  0
  9 19  1  0
 10 20  1  0
M  END
>  <partial_charges>  (154) 
0.129500001669
0.120399996638
0.0586999990046
0.109999999404
0.0790999978781
0.0969000011683
0.0631000027061
0.297800004482
0.069200001657
-0.43979999423
-0.614300012589
-0.591099977493
-0.609099984169
-0.5950999856
0.0711999982595
0.0711999982595
0.421499997377
0.413800001144
0.424899995327
0.422100007534

>  <partial_bond_orders>  (154) 
1.0
1.0
1.0
1.0
1.0
1.0
1.0
1.0
1.0
1.0
1.0
1.0
1.0
1.0
1.0
1.0
1.0
1.0
1.0
1.0

>  <atom_types>  (154) 
c3
c3
h1
c3
h1
c3
h1
c3
h2
os
oh
oh
oh
oh
h1
h1
ho
ho
ho
ho

>  <target>  (154) 
-20.52

>  <cal>  (154) 
-14.148

$$$$
mobley_628951
     RDKit          3D

 22 23  0  0  0  0  0  0  0  0999 V2000
    1.8850   -1.0360   -0.1120 C   0  0  0  0  0  0  0  0  0  0  0  0
    2.9210   -1.6310    0.6080 C   0  0  0  0  0  0  0  0  0  0  0  0
    2.8780   -1.6520    2.0020 C   0  0  0  0  0  0  0  0  0  0  0  0
    1.8000   -1.0790    2.6760 C   0  0  0  0  0  0  0  0  0  0  0  0
    0.7640   -0.4840    1.9550 C   0  0  0  0  0  0  0  0  0  0  0  0
    0.8070   -0.4630    0.5610 C   0  0  0  0  0  0  0  0  0  0  0  0
   -0.6020    0.2450    2.7290 Cl  0  0  0  0  0  0  0  0  0  0  0  0
    1.7550   -1.1010    4.1300 C   0  0  0  0  0  0  0  0  0  0  0  0
    1.1510   -2.1690    4.7930 C   0  0  0  0  0  0  0  0  0  0  0  0
    1.1090   -2.1910    6.1870 C   0  0  0  0  0  0  0  0  0  0  0  0
    1.6700   -1.1450    6.9180 C   0  0  0  0  0  0  0  0  0  0  0  0
    2.2750   -0.0760    6.2550 C   0  0  0  0  0  0  0  0  0  0  0  0
    2.3170   -0.0540    4.8610 C   0  0  0  0  0  0  0  0  0  0  0  0
    3.0820    1.2990    4.1000 Cl  0  0  0  0  0  0  0  0  0  0  0  0
    0.4350   -3.4980    3.9460 Cl  0  0  0  0  0  0  0  0  0  0  0  0
    4.1950   -2.4050    2.8370 Cl  0  0  0  0  0  0  0  0  0  0  0  0
    0.0000    0.0000    0.0000 H   0  0  0  0  0  0  0  0  0  0  0  0
    0.0000    0.0000    0.0000 H   0  0  0  0  0  0  0  0  0  0  0  0
    0.0000    0.0000    0.0000 H   0  0  0  0  0  0  0  0  0  0  0  0
    0.0000    0.0000    0.0000 H   0  0  0  0  0  0  0  0  0  0  0  0
    0.0000    0.0000    0.0000 H   0  0  0  0  0  0  0  0  0  0  0  0
    0.0000    0.0000    0.0000 H   0  0  0  0  0  0  0  0  0  0  0  0
  1  6  2  0
  1  2  1  0
  2  3  2  0
  3  4  1  0
  4  5  2  0
  5  6  1  0
  5  7  1  0
  4  8  1  0
  8 13  1  0
  8  9  2  0
  9 10  1  0
 10 11  2  0
 11 12  1  0
 12 13  2  0
 13 14  1  0
  9 15  1  0
  3 16  1  0
  1 17  1  0
  2 18  1  0
  6 19  1  0
 10 20  1  0
 11 21  1  0
 12 22  1  0
M  END
>  <partial_charges>  (155) 
-0.106200002134
-0.128900006413
0.0493000000715
-0.0348999984562
0.0493000000715
-0.128900006413
-0.0732999965549
-0.0348999984562
0.0493000000715
-0.128900006413
-0.105999998748
-0.128900006413
0.0493000000715
-0.0732999965549
-0.0732999965549
-0.0732999965549
0.142599999905
0.152199998498
0.152199998498
0.152199998498
0.142599999905
0.152199998498

>  <partial_bond_orders>  (155) 
2.0
1.0
2.0
1.0
2.0
1.0
1.0
1.0
2.0
1.0
2.0
1.0
2.0
1.0
1.0
1.0
1.0
1.0
1.0
1.0
1.0
1.0
1.0

>  <atom_types>  (155) 
ca
ca
ca
cp
ca
ca
cl
cp
ca
ca
ca
ca
ca
cl
cl
cl
ha
ha
ha
ha
ha
ha

>  <target>  (155) 
-2.28

>  <cal>  (155) 
-1.226

$$$$
mobley_2143011
     RDKit          3D

 15 14  0  0  0  0  0  0  0  0999 V2000
    2.1510   -3.7350    0.9780 C   0  0  0  0  0  0  0  0  0  0  0  0
    2.3690   -2.2470    1.2480 C   0  0  0  0  0  0  0  0  0  0  0  0
    2.8720   -2.0290    2.6750 C   0  0  0  0  0  0  0  0  0  0  0  0
    1.0890   -1.4840    1.0240 C   0  0  0  0  0  0  0  0  0  0  0  0
    0.9540   -0.5000    0.1260 C   0  0  0  0  0  0  0  0  0  0  0  0
    0.0000    0.0000    0.0000 H   0  0  0  0  0  0  0  0  0  0  0  0
    0.0000    0.0000    0.0000 H   0  0  0  0  0  0  0  0  0  0  0  0
    0.0000    0.0000    0.0000 H   0  0  0  0  0  0  0  0  0  0  0  0
    0.0000    0.0000    0.0000 H   0  0  0  0  0  0  0  0  0  0  0  0
    0.0000    0.0000    0.0000 H   0  0  0  0  0  0  0  0  0  0  0  0
    0.0000    0.0000    0.0000 H   0  0  0  0  0  0  0  0  0  0  0  0
    0.0000    0.0000    0.0000 H   0  0  0  0  0  0  0  0  0  0  0  0
    0.0000    0.0000    0.0000 H   0  0  0  0  0  0  0  0  0  0  0  0
    0.0000    0.0000    0.0000 H   0  0  0  0  0  0  0  0  0  0  0  0
    0.0000    0.0000    0.0000 H   0  0  0  0  0  0  0  0  0  0  0  0
  1  2  1  0
  2  3  1  0
  2  4  1  0
  4  5  2  3
  1  6  1  0
  1  7  1  0
  1  8  1  0
  2  9  1  0
  3 10  1  0
  3 11  1  0
  3 12  1  0
  4 13  1  0
  5 14  1  0
  5 15  1  0
M  END
>  <partial_charges>  (156) 
-0.0864000022411
-0.041700001806
-0.0864000022411
-0.158199995756
-0.224399998784
0.035000000149
0.035000000149
0.035000000149
0.0485000014305
0.035000000149
0.035000000149
0.035000000149
0.11819999665
0.110299997032
0.110299997032

>  <partial_bond_orders>  (156) 
1.0
1.0
1.0
2.0
1.0
1.0
1.0
1.0
1.0
1.0
1.0
1.0
1.0
1.0

>  <atom_types>  (156) 
c3
c3
c3
c2
c2
hc
hc
hc
hc
hc
hc
hc
ha
ha
ha

>  <target>  (156) 
1.83

>  <cal>  (156) 
2.452

$$$$
mobley_1899443
     RDKit          3D

 18 17  0  0  0  0  0  0  0  0999 V2000
   -2.9330   -0.8840    3.6710 C   0  0  0  0  0  0  0  0  0  0  0  0
   -1.5050   -0.4730    3.3450 C   0  0  0  0  0  0  0  0  0  0  0  0
   -1.4660    0.5640    2.2200 C   0  0  0  0  0  0  0  0  0  0  0  0
   -0.0600    0.9920    1.8730 C   0  0  0  0  0  0  0  0  0  0  0  0
    0.4430    0.8140    0.6410 C   0  0  0  0  0  0  0  0  0  0  0  0
    0.7390    1.6590    2.9550 C   0  0  0  0  0  0  0  0  0  0  0  0
    0.0000    0.0000    0.0000 H   0  0  0  0  0  0  0  0  0  0  0  0
    0.0000    0.0000    0.0000 H   0  0  0  0  0  0  0  0  0  0  0  0
    0.0000    0.0000    0.0000 H   0  0  0  0  0  0  0  0  0  0  0  0
    0.0000    0.0000    0.0000 H   0  0  0  0  0  0  0  0  0  0  0  0
    0.0000    0.0000    0.0000 H   0  0  0  0  0  0  0  0  0  0  0  0
    0.0000    0.0000    0.0000 H   0  0  0  0  0  0  0  0  0  0  0  0
    0.0000    0.0000    0.0000 H   0  0  0  0  0  0  0  0  0  0  0  0
    0.0000    0.0000    0.0000 H   0  0  0  0  0  0  0  0  0  0  0  0
    0.0000    0.0000    0.0000 H   0  0  0  0  0  0  0  0  0  0  0  0
    0.0000    0.0000    0.0000 H   0  0  0  0  0  0  0  0  0  0  0  0
    0.0000    0.0000    0.0000 H   0  0  0  0  0  0  0  0  0  0  0  0
    0.0000    0.0000    0.0000 H   0  0  0  0  0  0  0  0  0  0  0  0
  1  2  1  0
  2  3  1  0
  3  4  1  0
  4  5  2  3
  4  6  1  0
  1  7  1  0
  1  8  1  0
  1  9  1  0
  2 10  1  0
  2 11  1  0
  3 12  1  0
  3 13  1  0
  5 14  1  0
  5 15  1  0
  6 16  1  0
  6 17  1  0
  6 18  1  0
M  END
>  <partial_charges>  (157) 
-0.0927999988198
-0.0769999995828
-0.0469000004232
-0.108099997044
-0.229100003839
-0.0626000016928
0.0331999994814
0.0331999994814
0.0331999994814
0.0408000014722
0.0408000014722
0.0447000004351
0.0447000004351
0.111199997365
0.111199997365
0.0410999991
0.0410999991
0.0410999991

>  <partial_bond_orders>  (157) 
1.0
1.0
1.0
2.0
1.0
1.0
1.0
1.0
1.0
1.0
1.0
1.0
1.0
1.0
1.0
1.0
1.0

>  <atom_types>  (157) 
c3
c3
c3
c2
c2
c3
hc
hc
hc
hc
hc
hc
hc
ha
ha
hc
hc
hc

>  <target>  (157) 
1.47

>  <cal>  (157) 
2.486

$$$$
mobley_7610437
     RDKit          3D

 21 20  0  0  1  0  0  0  0  0999 V2000
    3.2780    0.1290   -0.4290 C   0  0  0  0  0  0  0  0  0  0  0  0
    1.9820    0.8860   -0.1670 C   0  0  0  0  0  0  0  0  0  0  0  0
    2.0050    1.6540    1.1620 C   0  0  0  0  0  0  0  0  0  0  0  0
    0.6960    2.4340    1.4240 C   0  0  0  0  0  0  0  0  0  0  0  0
   -0.5410    1.5330    1.4850 C   0  0  0  0  0  0  0  0  0  0  0  0
    0.7990    3.2370    2.7260 C   0  0  0  0  0  0  0  0  0  0  0  0
    3.1030    2.5660    1.1730 O   0  0  0  0  0  0  0  0  0  0  0  0
    0.0000    0.0000    0.0000 H   0  0  0  0  0  0  0  0  0  0  0  0
    0.0000    0.0000    0.0000 H   0  0  0  0  0  0  0  0  0  0  0  0
    0.0000    0.0000    0.0000 H   0  0  0  0  0  0  0  0  0  0  0  0
    0.0000    0.0000    0.0000 H   0  0  0  0  0  0  0  0  0  0  0  0
    0.0000    0.0000    0.0000 H   0  0  0  0  0  0  0  0  0  0  0  0
    0.0000    0.0000    0.0000 H   0  0  0  0  0  0  0  0  0  0  0  0
    0.0000    0.0000    0.0000 H   0  0  0  0  0  0  0  0  0  0  0  0
    0.0000    0.0000    0.0000 H   0  0  0  0  0  0  0  0  0  0  0  0
    0.0000    0.0000    0.0000 H   0  0  0  0  0  0  0  0  0  0  0  0
    0.0000    0.0000    0.0000 H   0  0  0  0  0  0  0  0  0  0  0  0
    0.0000    0.0000    0.0000 H   0  0  0  0  0  0  0  0  0  0  0  0
    0.0000    0.0000    0.0000 H   0  0  0  0  0  0  0  0  0  0  0  0
    0.0000    0.0000    0.0000 H   0  0  0  0  0  0  0  0  0  0  0  0
    0.0000    0.0000    0.0000 H   0  0  0  0  0  0  0  0  0  0  0  0
  1  2  1  0
  2  3  1  0
  3  4  1  0
  4  5  1  0
  4  6  1  0
  3  7  1  0
  1  8  1  0
  1  9  1  0
  1 10  1  0
  2 11  1  0
  2 12  1  0
  3 13  1  0
  4 14  1  0
  5 15  1  0
  5 16  1  0
  5 17  1  0
  6 18  1  0
  6 19  1  0
  6 20  1  0
  7 21  1  0
M  END
>  <partial_charges>  (158) 
-0.0908999964595
-0.112400002778
0.139699995518
0.0768000036478
-0.097999997437
-0.0890000015497
-0.0890000015497
-0.595799982548
0.0375000014901
0.0375000014901
0.0375000014901
0.043299999088
0.043299999088
0.0434999987483
0.0370000004768
0.0370000004768
0.0370000004768
0.0370000004768
0.0370000004768
0.0370000004768
0.394300013781

>  <partial_bond_orders>  (158) 
1.0
1.0
1.0
1.0
1.0
1.0
1.0
1.0
1.0
1.0
1.0
1.0
1.0
1.0
1.0
1.0
1.0
1.0
1.0
1.0

>  <atom_types>  (158) 
c3
c3
c3
h1
c3
c3
c3
oh
hc
hc
hc
hc
hc
hc
hc
hc
hc
hc
hc
hc
ho

>  <target>  (158) 
-3.88

>  <cal>  (158) 
-2.416

$$$$
mobley_1743409
     RDKit          3D

 26 25  0  0  0  0  0  0  0  0999 V2000
   -1.2680    0.7030   -1.6640 C   0  0  0  0  0  0  0  0  0  0  0  0
   -1.0420   -0.2240   -0.4900 C   0  0  0  0  0  0  0  0  0  0  0  0
   -2.0600    0.0070    0.4900 O   0  0  0  0  0  0  0  0  0  0  0  0
   -1.9810   -0.7660    1.6140 C   0  0  0  0  0  0  0  0  0  0  0  0
   -1.1310   -1.6170    1.8400 O   0  0  0  0  0  0  0  0  0  0  0  0
   -3.1260   -0.4060    2.5360 C   0  0  0  0  0  0  0  0  0  0  0  0
   -3.1240   -1.2210    3.8270 C   0  0  0  0  0  0  0  0  0  0  0  0
   -4.2690   -0.8600    4.7490 C   0  0  0  0  0  0  0  0  0  0  0  0
   -5.1230   -0.0150    4.5200 O   0  0  0  0  0  0  0  0  0  0  0  0
   -4.1960   -1.6400    5.8690 O   0  0  0  0  0  0  0  0  0  0  0  0
   -5.2250   -1.4220    6.8400 C   0  0  0  0  0  0  0  0  0  0  0  0
   -4.9950   -2.3580    8.0030 C   0  0  0  0  0  0  0  0  0  0  0  0
    0.0000    0.0000    0.0000 H   0  0  0  0  0  0  0  0  0  0  0  0
    0.0000    0.0000    0.0000 H   0  0  0  0  0  0  0  0  0  0  0  0
    0.0000    0.0000    0.0000 H   0  0  0  0  0  0  0  0  0  0  0  0
    0.0000    0.0000    0.0000 H   0  0  0  0  0  0  0  0  0  0  0  0
    0.0000    0.0000    0.0000 H   0  0  0  0  0  0  0  0  0  0  0  0
    0.0000    0.0000    0.0000 H   0  0  0  0  0  0  0  0  0  0  0  0
    0.0000    0.0000    0.0000 H   0  0  0  0  0  0  0  0  0  0  0  0
    0.0000    0.0000    0.0000 H   0  0  0  0  0  0  0  0  0  0  0  0
    0.0000    0.0000    0.0000 H   0  0  0  0  0  0  0  0  0  0  0  0
    0.0000    0.0000    0.0000 H   0  0  0  0  0  0  0  0  0  0  0  0
    0.0000    0.0000    0.0000 H   0  0  0  0  0  0  0  0  0  0  0  0
    0.0000    0.0000    0.0000 H   0  0  0  0  0  0  0  0  0  0  0  0
    0.0000    0.0000    0.0000 H   0  0  0  0  0  0  0  0  0  0  0  0
    0.0000    0.0000    0.0000 H   0  0  0  0  0  0  0  0  0  0  0  0
  1  2  1  0
  2  3  1  0
  3  4  1  0
  4  5  2  0
  4  6  1  0
  6  7  1  0
  7  8  1  0
  8  9  2  0
  8 10  1  0
 10 11  1  0
 11 12  1  0
  1 13  1  0
  1 14  1  0
  1 15  1  0
  2 16  1  0
  2 17  1  0
  6 18  1  0
  6 19  1  0
  7 20  1  0
  7 21  1  0
 11 22  1  0
 11 23  1  0
 12 24  1  0
 12 25  1  0
 12 26  1  0
M  END
>  <partial_charges>  (159) 
-0.100599996746
0.139400005341
-0.441500008106
0.631900012493
-0.544499993324
-0.127399995923
-0.127399995923
0.631900012493
-0.544499993324
-0.441500008106
0.139400005341
-0.100500002503
0.0489999987185
0.0489999987185
0.0489999987185
0.0520000010729
0.0520000010729
0.0957999974489
0.0957999974489
0.0957999974489
0.0957999974489
0.0520000010729
0.0520000010729
0.0489999987185
0.0489999987185
0.0489999987185

>  <partial_bond_orders>  (159) 
1.0
1.0
1.0
2.0
1.0
1.0
1.0
2.0
1.0
1.0
1.0
1.0
1.0
1.0
1.0
1.0
1.0
1.0
1.0
1.0
1.0
1.0
1.0
1.0
1.0

>  <atom_types>  (159) 
c3
c3
os
c
o
c3
c3
c
o
os
c3
c3
hc
hc
hc
h1
h1
hc
hc
hc
hc
h1
h1
hc
hc
hc

>  <target>  (159) 
-5.71

>  <cal>  (159) 
-8.683

$$$$
mobley_3968739
     RDKit          3D

 18 18  0  0  0  0  0  0  0  0999 V2000
    0.5830   -1.0170   -3.5060 C   0  0  0  0  0  0  0  0  0  0  0  0
    0.6720   -1.0340   -2.0770 O   0  0  0  0  0  0  0  0  0  0  0  0
    1.9290   -1.0160   -1.5660 C   0  0  0  0  0  0  0  0  0  0  0  0
    2.9700   -0.9870   -2.2040 O   0  0  0  0  0  0  0  0  0  0  0  0
    1.8850   -1.0360   -0.1120 C   0  0  0  0  0  0  0  0  0  0  0  0
    2.9210   -1.6310    0.6080 C   0  0  0  0  0  0  0  0  0  0  0  0
    2.8780   -1.6520    2.0020 C   0  0  0  0  0  0  0  0  0  0  0  0
    1.8000   -1.0790    2.6760 C   0  0  0  0  0  0  0  0  0  0  0  0
    0.7640   -0.4840    1.9550 C   0  0  0  0  0  0  0  0  0  0  0  0
    0.8070   -0.4630    0.5610 C   0  0  0  0  0  0  0  0  0  0  0  0
    0.0000    0.0000    0.0000 H   0  0  0  0  0  0  0  0  0  0  0  0
    0.0000    0.0000    0.0000 H   0  0  0  0  0  0  0  0  0  0  0  0
    0.0000    0.0000    0.0000 H   0  0  0  0  0  0  0  0  0  0  0  0
    0.0000    0.0000    0.0000 H   0  0  0  0  0  0  0  0  0  0  0  0
    0.0000    0.0000    0.0000 H   0  0  0  0  0  0  0  0  0  0  0  0
    0.0000    0.0000    0.0000 H   0  0  0  0  0  0  0  0  0  0  0  0
    0.0000    0.0000    0.0000 H   0  0  0  0  0  0  0  0  0  0  0  0
    0.0000    0.0000    0.0000 H   0  0  0  0  0  0  0  0  0  0  0  0
  1  2  1  0
  2  3  1  0
  3  4  2  0
  3  5  1  0
  5 10  2  0
  5  6  1  0
  6  7  2  0
  7  8  1  0
  8  9  2  0
  9 10  1  0
  1 11  1  0
  1 12  1  0
  1 13  1  0
  6 14  1  0
  7 15  1  0
  8 16  1  0
  9 17  1  0
 10 18  1  0
M  END
>  <partial_charges>  (160) 
0.125799998641
-0.439200013876
0.645500004292
-0.536300003529
-0.130600005388
-0.0737000033259
-0.144500002265
-0.0992000028491
-0.144500002265
-0.0737000033259
0.0502000004053
0.0502000004053
0.0502000004053
0.153099998832
0.138999998569
0.135900005698
0.138999998569
0.153099998832

>  <partial_bond_orders>  (160) 
1.0
1.0
2.0
1.0
2.0
1.0
2.0
1.0
2.0
1.0
1.0
1.0
1.0
1.0
1.0
1.0
1.0
1.0

>  <atom_types>  (160) 
c3
os
c
o
ca
ca
ca
ca
ca
ca
h1
h1
h1
ha
ha
ha
ha
ha

>  <target>  (160) 
-3.92

>  <cal>  (160) 
-4.921

$$$$
mobley_676247
     RDKit          3D

  5  4  0  0  0  0  0  0  0  0999 V2000
    0.0000    0.0000    0.0000 C   0  0  0  0  0  0  0  0  0  0  0  0
    0.4510   -0.8200    0.9640 F   0  0  0  0  0  0  0  0  0  0  0  0
   -0.9230   -0.6400   -0.7360 F   0  0  0  0  0  0  0  0  0  0  0  0
   -0.5510    1.0900    0.5600 F   0  0  0  0  0  0  0  0  0  0  0  0
    1.0230    0.3700   -0.7880 F   0  0  0  0  0  0  0  0  0  0  0  0
  1  2  1  0
  1  3  1  0
  1  4  1  0
  1  5  1  0
M  END
>  <partial_charges>  (161) 
0.862200021744
-0.215499997139
-0.215499997139
-0.215499997139
-0.215499997139

>  <partial_bond_orders>  (161) 
1.0
1.0
1.0
1.0

>  <atom_types>  (161) 
c3
f
f
f
f

>  <target>  (161) 
3.12

>  <cal>  (161) 
2.489

$$$$
mobley_4792268
     RDKit          3D

 17 16  0  0  0  0  0  0  0  0999 V2000
   -2.8890   -0.8640    1.4430 C   0  0  0  0  0  0  0  0  0  0  0  0
   -1.4440   -0.4110    1.5740 C   0  0  0  0  0  0  0  0  0  0  0  0
   -0.6040   -1.3070    2.4860 C   0  0  0  0  0  0  0  0  0  0  0  0
    0.8490   -0.8490    2.6140 C   0  0  0  0  0  0  0  0  0  0  0  0
    1.6480   -1.7570    3.5220 C   0  0  0  0  0  0  0  0  0  0  0  0
    1.2140   -2.7450    4.0980 O   0  0  0  0  0  0  0  0  0  0  0  0
    2.9380   -1.3450    3.6240 O   0  0  0  0  0  0  0  0  0  0  0  0
    0.0000    0.0000    0.0000 H   0  0  0  0  0  0  0  0  0  0  0  0
    0.0000    0.0000    0.0000 H   0  0  0  0  0  0  0  0  0  0  0  0
    0.0000    0.0000    0.0000 H   0  0  0  0  0  0  0  0  0  0  0  0
    0.0000    0.0000    0.0000 H   0  0  0  0  0  0  0  0  0  0  0  0
    0.0000    0.0000    0.0000 H   0  0  0  0  0  0  0  0  0  0  0  0
    0.0000    0.0000    0.0000 H   0  0  0  0  0  0  0  0  0  0  0  0
    0.0000    0.0000    0.0000 H   0  0  0  0  0  0  0  0  0  0  0  0
    0.0000    0.0000    0.0000 H   0  0  0  0  0  0  0  0  0  0  0  0
    0.0000    0.0000    0.0000 H   0  0  0  0  0  0  0  0  0  0  0  0
    0.0000    0.0000    0.0000 H   0  0  0  0  0  0  0  0  0  0  0  0
  1  2  1  0
  2  3  1  0
  3  4  1  0
  4  5  1  0
  5  6  2  0
  5  7  1  0
  1  8  1  0
  1  9  1  0
  1 10  1  0
  2 11  1  0
  2 12  1  0
  3 13  1  0
  3 14  1  0
  4 15  1  0
  4 16  1  0
  7 17  1  0
M  END
>  <partial_charges>  (162) 
-0.0926999971271
-0.0850000008941
-0.069399997592
-0.127399995923
0.636099994183
-0.552999973297
-0.60790002346
0.0348000004888
0.0348000004888
0.0348000004888
0.048599999398
0.048599999398
0.0500999987125
0.0500999987125
0.077699996531
0.077699996531
0.442000001669

>  <partial_bond_orders>  (162) 
1.0
1.0
1.0
1.0
2.0
1.0
1.0
1.0
1.0
1.0
1.0
1.0
1.0
1.0
1.0
1.0

>  <atom_types>  (162) 
c3
c3
c3
c3
c
o
oh
hc
hc
hc
hc
hc
hc
hc
hc
hc
ho

>  <target>  (162) 
-6.16

>  <cal>  (162) 
-9.053

$$$$
mobley_7463408
     RDKit          3D

 22 22  0  0  0  0  0  0  0  0999 V2000
   -0.6160   -0.8900   -0.1620 C   0  0  0  0  0  0  0  0  0  0  0  0
   -1.0340   -0.9860   -1.6180 C   0  0  0  0  0  0  0  0  0  0  0  0
   -1.8950   -2.2080   -1.9030 C   0  0  0  0  0  0  0  0  0  0  0  0
   -2.1990   -3.0090   -1.0250 O   0  0  0  0  0  0  0  0  0  0  0  0
   -2.2510   -2.2510   -3.2480 N   0  0  0  0  0  0  0  0  0  0  0  0
   -3.0420   -3.2270   -3.9000 C   0  0  0  0  0  0  0  0  0  0  0  0
   -3.5610   -4.3000   -3.1770 C   0  0  0  0  0  0  0  0  0  0  0  0
   -4.3410   -5.2620   -3.8190 C   0  0  0  0  0  0  0  0  0  0  0  0
   -4.6020   -5.1500   -5.1850 C   0  0  0  0  0  0  0  0  0  0  0  0
   -4.0820   -4.0760   -5.9080 C   0  0  0  0  0  0  0  0  0  0  0  0
   -3.3020   -3.1150   -5.2660 C   0  0  0  0  0  0  0  0  0  0  0  0
   -4.3710   -3.8820   -7.6020 Cl  0  0  0  0  0  0  0  0  0  0  0  0
   -5.5770   -6.3720   -5.9230 Cl  0  0  0  0  0  0  0  0  0  0  0  0
    0.0000    0.0000    0.0000 H   0  0  0  0  0  0  0  0  0  0  0  0
    0.0000    0.0000    0.0000 H   0  0  0  0  0  0  0  0  0  0  0  0
    0.0000    0.0000    0.0000 H   0  0  0  0  0  0  0  0  0  0  0  0
    0.0000    0.0000    0.0000 H   0  0  0  0  0  0  0  0  0  0  0  0
    0.0000    0.0000    0.0000 H   0  0  0  0  0  0  0  0  0  0  0  0
    0.0000    0.0000    0.0000 H   0  0  0  0  0  0  0  0  0  0  0  0
    0.0000    0.0000    0.0000 H   0  0  0  0  0  0  0  0  0  0  0  0
    0.0000    0.0000    0.0000 H   0  0  0  0  0  0  0  0  0  0  0  0
    0.0000    0.0000    0.0000 H   0  0  0  0  0  0  0  0  0  0  0  0
  1  2  1  0
  2  3  1  0
  3  4  2  0
  3  5  1  0
  5  6  1  0
  6 11  2  0
  6  7  1  0
  7  8  2  0
  8  9  1  0
  9 10  2  0
 10 11  1  0
 10 12  1  0
  9 13  1  0
  1 14  1  0
  1 15  1  0
  1 16  1  0
  2 17  1  0
  2 18  1  0
  5 19  1  0
  7 20  1  0
  8 21  1  0
 11 22  1  0
M  END
>  <partial_charges>  (163) 
-0.0864000022411
-0.157499998808
0.672200024128
-0.575600028038
-0.477899998426
0.0856999978423
-0.153600007296
-0.089500002563
-0.0143999997526
0.048900000751
-0.183599993587
-0.0727000012994
-0.0712999999523
0.048900000751
0.048900000751
0.048900000751
0.0635000020266
0.0635000020266
0.31819999218
0.182699993253
0.154200002551
0.146899998188

>  <partial_bond_orders>  (163) 
1.0
1.0
2.0
1.0
1.0
2.0
1.0
2.0
1.0
2.0
1.0
1.0
1.0
1.0
1.0
1.0
1.0
1.0
1.0
1.0
1.0
1.0

>  <atom_types>  (163) 
c3
c3
c
o
n
ca
ca
ca
ca
ca
ca
cl
cl
hc
hc
hc
hc
hc
hn
ha
ha
ha

>  <target>  (163) 
-7.78

>  <cal>  (163) 
-9.409

$$$$
mobley_2198613
     RDKit          3D

  8  7  0  0  0  0  0  0  0  0999 V2000
    0.1540   -0.7250    0.8060 C   0  0  0  0  0  0  0  0  0  0  0  0
    1.3670   -0.3680    1.6390 C   0  0  0  0  0  0  0  0  0  0  0  0
    2.8320   -0.3570    0.6340 Cl  0  0  0  0  0  0  0  0  0  0  0  0
    0.0000    0.0000    0.0000 H   0  0  0  0  0  0  0  0  0  0  0  0
    0.0000    0.0000    0.0000 H   0  0  0  0  0  0  0  0  0  0  0  0
    0.0000    0.0000    0.0000 H   0  0  0  0  0  0  0  0  0  0  0  0
    0.0000    0.0000    0.0000 H   0  0  0  0  0  0  0  0  0  0  0  0
    0.0000    0.0000    0.0000 H   0  0  0  0  0  0  0  0  0  0  0  0
  1  2  1  0
  2  3  1  0
  1  4  1  0
  1  5  1  0
  1  6  1  0
  2  7  1  0
  2  8  1  0
M  END
>  <partial_charges>  (164) 
-0.106700003147
0.0384999997914
-0.202399998903
0.048599999398
0.048599999398
0.048599999398
0.0623999983072
0.0623999983072

>  <partial_bond_orders>  (164) 
1.0
1.0
1.0
1.0
1.0
1.0
1.0

>  <atom_types>  (164) 
c3
c3
cl
hc
hc
hc
h1
h1

>  <target>  (164) 
-0.63

>  <cal>  (164) 
0.775

$$$$
mobley_7542832
     RDKit          3D

 21 20  0  0  0  0  0  0  0  0999 V2000
   -1.1990   -0.8870    2.8810 C   0  0  0  0  0  0  0  0  0  0  0  0
    0.1100   -0.6530    3.6140 C   0  0  0  0  0  0  0  0  0  0  0  0
    1.2750   -1.3490    2.9270 C   0  0  0  0  0  0  0  0  0  0  0  0
    2.4630   -1.0900    3.6620 O   0  0  0  0  0  0  0  0  0  0  0  0
    3.5920   -1.7170    3.0680 C   0  0  0  0  0  0  0  0  0  0  0  0
    4.8240   -1.4000    3.9010 C   0  0  0  0  0  0  0  0  0  0  0  0
    6.0750   -2.0390    3.3240 C   0  0  0  0  0  0  0  0  0  0  0  0
    0.0000    0.0000    0.0000 H   0  0  0  0  0  0  0  0  0  0  0  0
    0.0000    0.0000    0.0000 H   0  0  0  0  0  0  0  0  0  0  0  0
    0.0000    0.0000    0.0000 H   0  0  0  0  0  0  0  0  0  0  0  0
    0.0000    0.0000    0.0000 H   0  0  0  0  0  0  0  0  0  0  0  0
    0.0000    0.0000    0.0000 H   0  0  0  0  0  0  0  0  0  0  0  0
    0.0000    0.0000    0.0000 H   0  0  0  0  0  0  0  0  0  0  0  0
    0.0000    0.0000    0.0000 H   0  0  0  0  0  0  0  0  0  0  0  0
    0.0000    0.0000    0.0000 H   0  0  0  0  0  0  0  0  0  0  0  0
    0.0000    0.0000    0.0000 H   0  0  0  0  0  0  0  0  0  0  0  0
    0.0000    0.0000    0.0000 H   0  0  0  0  0  0  0  0  0  0  0  0
    0.0000    0.0000    0.0000 H   0  0  0  0  0  0  0  0  0  0  0  0
    0.0000    0.0000    0.0000 H   0  0  0  0  0  0  0  0  0  0  0  0
    0.0000    0.0000    0.0000 H   0  0  0  0  0  0  0  0  0  0  0  0
    0.0000    0.0000    0.0000 H   0  0  0  0  0  0  0  0  0  0  0  0
  1  2  1  0
  2  3  1  0
  3  4  1  0
  4  5  1  0
  5  6  1  0
  6  7  1  0
  1  8  1  0
  1  9  1  0
  1 10  1  0
  2 11  1  0
  2 12  1  0
  3 13  1  0
  3 14  1  0
  5 15  1  0
  5 16  1  0
  6 17  1  0
  6 18  1  0
  7 19  1  0
  7 20  1  0
  7 21  1  0
M  END
>  <partial_charges>  (165) 
-0.0929000005126
-0.0847999975085
0.131099998951
-0.425199985504
0.131099998951
-0.0847999975085
-0.0927999988198
0.034699998796
0.034699998796
0.034699998796
0.0533999986947
0.0533999986947
0.0240000002086
0.0240000002086
0.0240000002086
0.0240000002086
0.0533999986947
0.0533999986947
0.034699998796
0.034699998796
0.034699998796

>  <partial_bond_orders>  (165) 
1.0
1.0
1.0
1.0
1.0
1.0
1.0
1.0
1.0
1.0
1.0
1.0
1.0
1.0
1.0
1.0
1.0
1.0
1.0
1.0

>  <atom_types>  (165) 
c3
c3
c3
os
c3
c3
c3
hc
hc
hc
hc
hc
h1
h1
h1
h1
hc
hc
hc
hc
hc

>  <target>  (165) 
-1.16

>  <cal>  (165) 
-0.004

$$$$
mobley_5311804
     RDKit          3D

 16 16  0  0  0  0  0  0  0  0999 V2000
    1.8850   -1.0360   -0.1120 C   0  0  0  0  0  0  0  0  0  0  0  0
    2.9210   -1.6310    0.6080 C   0  0  0  0  0  0  0  0  0  0  0  0
    2.8780   -1.6520    2.0020 C   0  0  0  0  0  0  0  0  0  0  0  0
    1.8000   -1.0790    2.6760 C   0  0  0  0  0  0  0  0  0  0  0  0
    0.7640   -0.4840    1.9550 C   0  0  0  0  0  0  0  0  0  0  0  0
    0.8070   -0.4630    0.5610 C   0  0  0  0  0  0  0  0  0  0  0  0
    1.7550   -1.1010    4.1660 C   0  0  0  0  0  0  0  0  0  0  0  0
    1.0930   -2.2830    4.6010 O   0  0  0  0  0  0  0  0  0  0  0  0
    0.0000    0.0000    0.0000 H   0  0  0  0  0  0  0  0  0  0  0  0
    0.0000    0.0000    0.0000 H   0  0  0  0  0  0  0  0  0  0  0  0
    0.0000    0.0000    0.0000 H   0  0  0  0  0  0  0  0  0  0  0  0
    0.0000    0.0000    0.0000 H   0  0  0  0  0  0  0  0  0  0  0  0
    0.0000    0.0000    0.0000 H   0  0  0  0  0  0  0  0  0  0  0  0
    0.0000    0.0000    0.0000 H   0  0  0  0  0  0  0  0  0  0  0  0
    0.0000    0.0000    0.0000 H   0  0  0  0  0  0  0  0  0  0  0  0
    0.0000    0.0000    0.0000 H   0  0  0  0  0  0  0  0  0  0  0  0
  1  6  2  0
  1  2  1  0
  2  3  2  0
  3  4  1  0
  4  5  2  0
  5  6  1  0
  4  7  1  0
  7  8  1  0
  1  9  1  0
  2 10  1  0
  3 11  1  0
  5 12  1  0
  6 13  1  0
  7 14  1  0
  7 15  1  0
  8 16  1  0
M  END
>  <partial_charges>  (166) 
-0.123300001025
-0.133900001645
-0.108400002122
-0.0869999974966
-0.108400002122
-0.133900001645
0.177100002766
-0.591199994087
0.130400002003
0.131500005722
0.133200004697
0.133200004697
0.131500005722
0.0255999993533
0.0255999993533
0.397799998522

>  <partial_bond_orders>  (166) 
2.0
1.0
2.0
1.0
2.0
1.0
1.0
1.0
1.0
1.0
1.0
1.0
1.0
1.0
1.0
1.0

>  <atom_types>  (166) 
ca
ca
ca
ca
ca
ca
c3
oh
ha
ha
ha
ha
ha
h1
h1
ho

>  <target>  (166) 
-6.62

>  <cal>  (166) 
-5.133

$$$$
mobley_8785107
     RDKit          3D

 19 19  0  0  1  0  0  0  0  0999 V2000
   -0.4950    1.3490    2.0300 C   0  0  0  0  0  0  0  0  0  0  0  0
   -0.6740    0.6790    0.6820 C   0  0  0  0  0  0  0  0  0  0  0  0
    0.0220    1.4100   -0.4550 C   0  0  0  0  0  0  0  0  0  0  0  0
    0.2730    0.2850   -1.4280 C   0  0  0  0  0  0  0  0  0  0  0  0
    0.6430   -0.8510   -0.4890 C   0  0  0  0  0  0  0  0  0  0  0  0
   -0.1130   -0.6450    0.7160 O   0  0  0  0  0  0  0  0  0  0  0  0
    0.3430   -2.2250   -1.0560 C   0  0  0  0  0  0  0  0  0  0  0  0
    0.0000    0.0000    0.0000 H   0  0  0  0  0  0  0  0  0  0  0  0
    0.0000    0.0000    0.0000 H   0  0  0  0  0  0  0  0  0  0  0  0
    0.0000    0.0000    0.0000 H   0  0  0  0  0  0  0  0  0  0  0  0
    0.0000    0.0000    0.0000 H   0  0  0  0  0  0  0  0  0  0  0  0
    0.0000    0.0000    0.0000 H   0  0  0  0  0  0  0  0  0  0  0  0
    0.0000    0.0000    0.0000 H   0  0  0  0  0  0  0  0  0  0  0  0
    0.0000    0.0000    0.0000 H   0  0  0  0  0  0  0  0  0  0  0  0
    0.0000    0.0000    0.0000 H   0  0  0  0  0  0  0  0  0  0  0  0
    0.0000    0.0000    0.0000 H   0  0  0  0  0  0  0  0  0  0  0  0
    0.0000    0.0000    0.0000 H   0  0  0  0  0  0  0  0  0  0  0  0
    0.0000    0.0000    0.0000 H   0  0  0  0  0  0  0  0  0  0  0  0
    0.0000    0.0000    0.0000 H   0  0  0  0  0  0  0  0  0  0  0  0
  1  2  1  0
  2  6  1  0
  2  3  1  0
  3  4  1  0
  4  5  1  0
  5  6  1  0
  5  7  1  0
  1  8  1  0
  1  9  1  0
  1 10  1  0
  2 11  1  0
  3 12  1  0
  3 13  1  0
  4 14  1  0
  4 15  1  0
  5 16  1  0
  7 17  1  0
  7 18  1  0
  7 19  1  0
M  END
>  <partial_charges>  (167) 
-0.097800001502
0.137400001287
0.042199999094
-0.106799997389
-0.106799997389
0.137400001287
0.042199999094
-0.423799991608
-0.0976999998093
0.0434999987483
0.0434999987483
0.0434999987483
0.0531999990344
0.0531999990344
0.0531999990344
0.0531999990344
0.0434999987483
0.0434999987483
0.0434999987483

>  <partial_bond_orders>  (167) 
1.0
1.0
1.0
1.0
1.0
1.0
1.0
1.0
1.0
1.0
1.0
1.0
1.0
1.0
1.0
1.0
1.0
1.0
1.0

>  <atom_types>  (167) 
c3
c3
h1
c3
c3
c3
h1
os
c3
hc
hc
hc
hc
hc
hc
hc
hc
hc
hc

>  <target>  (167) 
-2.92

>  <cal>  (167) 
-1.787

$$$$
mobley_7298388
     RDKit          3D

 17 17  0  0  0  0  0  0  0  0999 V2000
    1.9310   -1.0140   -1.6030 C   0  0  0  0  0  0  0  0  0  0  0  0
    1.8850   -1.0360   -0.1120 C   0  0  0  0  0  0  0  0  0  0  0  0
    2.9210   -1.6310    0.6080 C   0  0  0  0  0  0  0  0  0  0  0  0
    2.8780   -1.6520    2.0020 C   0  0  0  0  0  0  0  0  0  0  0  0
    1.8000   -1.0790    2.6760 C   0  0  0  0  0  0  0  0  0  0  0  0
    0.7640   -0.4840    1.9550 C   0  0  0  0  0  0  0  0  0  0  0  0
    0.8070   -0.4630    0.5610 C   0  0  0  0  0  0  0  0  0  0  0  0
   -0.3330    0.1010    2.6420 N   0  0  0  0  0  0  0  0  0  0  0  0
   -1.2550    0.6310    1.9750 O   0  0  0  0  0  0  0  0  0  0  0  0
   -0.3500    0.0730    3.8960 O   0  0  0  0  0  0  0  0  0  0  0  0
    0.0000    0.0000    0.0000 H   0  0  0  0  0  0  0  0  0  0  0  0
    0.0000    0.0000    0.0000 H   0  0  0  0  0  0  0  0  0  0  0  0
    0.0000    0.0000    0.0000 H   0  0  0  0  0  0  0  0  0  0  0  0
    0.0000    0.0000    0.0000 H   0  0  0  0  0  0  0  0  0  0  0  0
    0.0000    0.0000    0.0000 H   0  0  0  0  0  0  0  0  0  0  0  0
    0.0000    0.0000    0.0000 H   0  0  0  0  0  0  0  0  0  0  0  0
    0.0000    0.0000    0.0000 H   0  0  0  0  0  0  0  0  0  0  0  0
  1  2  1  0
  2  7  2  0
  2  3  1  0
  3  4  2  0
  4  5  1  0
  5  6  2  0
  6  7  1  0
  6  8  1  0
  8  9  1  0
  8 10  1  0
  1 11  1  0
  1 12  1  0
  1 13  1  0
  3 14  1  0
  4 15  1  0
  5 16  1  0
  7 17  1  0
M  CHG  2   9  -1  10  -1
M  END
>  <partial_charges>  (168) 
-0.0593000017107
-0.0817999988794
-0.0920000001788
-0.134800001979
-0.0729999989271
-0.170000001788
-0.0729999989271
0.310799986124
-0.209299996495
-0.209299996495
0.0524999983609
0.0524999983609
0.0524999983609
0.143399998546
0.14849999547
0.170499995351
0.17159999907

>  <partial_bond_orders>  (168) 
1.0
2.0
1.0
2.0
1.0
2.0
1.0
1.0
1.0
1.0
1.0
1.0
1.0
1.0
1.0
1.0
1.0

>  <atom_types>  (168) 
c3
ca
ca
ca
ca
ca
ca
no
o
o
hc
hc
hc
ha
ha
ha
ha

>  <target>  (168) 
-3.45

>  <cal>  (168) 
-3.278

$$$$
mobley_7017274
     RDKit          3D

 24 26  0  0  0  0  0  0  0  0999 V2000
   -6.1100   -1.6950   -5.2170 C   0  0  0  0  0  0  0  0  0  0  0  0
   -5.3790   -2.7590   -4.7130 C   0  0  0  0  0  0  0  0  0  0  0  0
   -4.3280   -2.5250   -3.8220 C   0  0  0  0  0  0  0  0  0  0  0  0
   -3.9710   -1.2190   -3.4030 C   0  0  0  0  0  0  0  0  0  0  0  0
   -4.7370   -0.1480   -3.9340 C   0  0  0  0  0  0  0  0  0  0  0  0
   -5.7910   -0.3970   -4.8290 C   0  0  0  0  0  0  0  0  0  0  0  0
   -4.4440    1.1680   -3.5670 C   0  0  0  0  0  0  0  0  0  0  0  0
   -3.4070    1.4480   -2.6820 C   0  0  0  0  0  0  0  0  0  0  0  0
   -2.6320    0.4210   -2.1380 C   0  0  0  0  0  0  0  0  0  0  0  0
   -2.8980   -0.9290   -2.4870 C   0  0  0  0  0  0  0  0  0  0  0  0
   -2.0700   -1.9150   -1.8950 C   0  0  0  0  0  0  0  0  0  0  0  0
   -1.0390   -1.5870   -1.0100 C   0  0  0  0  0  0  0  0  0  0  0  0
   -0.8000   -0.2600   -0.6870 C   0  0  0  0  0  0  0  0  0  0  0  0
   -1.5910    0.7370   -1.2480 C   0  0  0  0  0  0  0  0  0  0  0  0
    0.0000    0.0000    0.0000 H   0  0  0  0  0  0  0  0  0  0  0  0
    0.0000    0.0000    0.0000 H   0  0  0  0  0  0  0  0  0  0  0  0
    0.0000    0.0000    0.0000 H   0  0  0  0  0  0  0  0  0  0  0  0
    0.0000    0.0000    0.0000 H   0  0  0  0  0  0  0  0  0  0  0  0
    0.0000    0.0000    0.0000 H   0  0  0  0  0  0  0  0  0  0  0  0
    0.0000    0.0000    0.0000 H   0  0  0  0  0  0  0  0  0  0  0  0
    0.0000    0.0000    0.0000 H   0  0  0  0  0  0  0  0  0  0  0  0
    0.0000    0.0000    0.0000 H   0  0  0  0  0  0  0  0  0  0  0  0
    0.0000    0.0000    0.0000 H   0  0  0  0  0  0  0  0  0  0  0  0
    0.0000    0.0000    0.0000 H   0  0  0  0  0  0  0  0  0  0  0  0
  1  6  2  0
  1  2  1  0
  2  3  2  0
  3  4  1  0
  4 10  1  0
  4  5  2  0
  5  6  1  0
  5  7  1  0
  7  8  2  0
  8  9  1  0
  9 14  1  0
  9 10  2  0
 10 11  1  0
 11 12  2  0
 12 13  1  0
 13 14  2  0
  1 15  1  0
  2 16  1  0
  3 17  1  0
  6 18  1  0
  7 19  1  0
  8 20  1  0
 11 21  1  0
 12 22  1  0
 13 23  1  0
 14 24  1  0
M  END
>  <partial_charges>  (169) 
-0.12729999423
-0.128099992871
-0.118100002408
-0.0174000002444
-0.0368000008166
-0.118600003421
-0.116999998689
-0.116999998689
-0.0368000008166
-0.0174000002444
-0.118100002408
-0.128099992871
-0.127100005746
-0.118600003421
0.132899999619
0.132799997926
0.131300002337
0.132899999619
0.133200004697
0.133200004697
0.131300002337
0.132799997926
0.132899999619
0.132899999619

>  <partial_bond_orders>  (169) 
2.0
1.0
2.0
1.0
2.0
1.0
1.0
2.0
1.0
2.0
1.0
1.0
1.0
2.0
1.0
2.0
1.0
1.0
1.0
1.0
1.0
1.0
1.0
1.0
1.0
1.0

>  <atom_types>  (169) 
ca
ca
ca
ca
ca
ca
ca
ca
ca
ca
ca
ca
ca
ca
ha
ha
ha
ha
ha
ha
ha
ha
ha
ha

>  <target>  (169) 
-3.88

>  <cal>  (169) 
-5.264

$$$$
mobley_7099614
     RDKit          3D

  9  8  0  0  0  0  0  0  0  0999 V2000
   -0.5600    1.0890    0.7290 C   0  0  0  0  0  0  0  0  0  0  0  0
   -0.1760   -0.1720    0.4990 C   0  0  0  0  0  0  0  0  0  0  0  0
    0.5940   -0.6000   -0.7060 C   0  0  0  0  0  0  0  0  0  0  0  0
   -0.3330   -1.8100   -1.6180 Cl  0  0  0  0  0  0  0  0  0  0  0  0
    0.0000    0.0000    0.0000 H   0  0  0  0  0  0  0  0  0  0  0  0
    0.0000    0.0000    0.0000 H   0  0  0  0  0  0  0  0  0  0  0  0
    0.0000    0.0000    0.0000 H   0  0  0  0  0  0  0  0  0  0  0  0
    0.0000    0.0000    0.0000 H   0  0  0  0  0  0  0  0  0  0  0  0
    0.0000    0.0000    0.0000 H   0  0  0  0  0  0  0  0  0  0  0  0
  1  2  2  3
  2  3  1  0
  3  4  1  0
  1  5  1  0
  1  6  1  0
  2  7  1  0
  3  8  1  0
  3  9  1  0
M  END
>  <partial_charges>  (170) 
-0.195999994874
-0.182699993253
0.0681999996305
-0.193499997258
0.116200000048
0.116200000048
0.133799999952
0.0688999965787
0.0688999965787

>  <partial_bond_orders>  (170) 
2.0
1.0
1.0
1.0
1.0
1.0
1.0
1.0

>  <atom_types>  (170) 
c2
c2
c3
cl
ha
ha
ha
h1
h1

>  <target>  (170) 
-0.57

>  <cal>  (170) 
0.944

$$$$
mobley_9246215
     RDKit          3D

 13 12  0  0  0  0  0  0  0  0999 V2000
   -0.5980    0.6830    2.0450 C   0  0  0  0  0  0  0  0  0  0  0  0
    0.4010    0.3350    1.2260 C   0  0  0  0  0  0  0  0  0  0  0  0
    0.4120    0.6160   -0.2470 C   0  0  0  0  0  0  0  0  0  0  0  0
    0.5020   -0.6480   -1.0510 C   0  0  0  0  0  0  0  0  0  0  0  0
   -0.4210   -1.0370   -1.9380 C   0  0  0  0  0  0  0  0  0  0  0  0
    0.0000    0.0000    0.0000 H   0  0  0  0  0  0  0  0  0  0  0  0
    0.0000    0.0000    0.0000 H   0  0  0  0  0  0  0  0  0  0  0  0
    0.0000    0.0000    0.0000 H   0  0  0  0  0  0  0  0  0  0  0  0
    0.0000    0.0000    0.0000 H   0  0  0  0  0  0  0  0  0  0  0  0
    0.0000    0.0000    0.0000 H   0  0  0  0  0  0  0  0  0  0  0  0
    0.0000    0.0000    0.0000 H   0  0  0  0  0  0  0  0  0  0  0  0
    0.0000    0.0000    0.0000 H   0  0  0  0  0  0  0  0  0  0  0  0
    0.0000    0.0000    0.0000 H   0  0  0  0  0  0  0  0  0  0  0  0
  1  2  2  3
  2  3  1  0
  3  4  1  0
  4  5  2  3
  1  6  1  0
  1  7  1  0
  2  8  1  0
  3  9  1  0
  3 10  1  0
  4 11  1  0
  5 12  1  0
  5 13  1  0
M  END
>  <partial_charges>  (171) 
-0.220100000501
-0.158099994063
-0.0273000001907
-0.158099994063
-0.220100000501
0.111400000751
0.111400000751
0.11819999665
0.0509000010788
0.0509000010788
0.11819999665
0.111400000751
0.111400000751

>  <partial_bond_orders>  (171) 
2.0
1.0
1.0
2.0
1.0
1.0
1.0
1.0
1.0
1.0
1.0
1.0

>  <atom_types>  (171) 
c2
c2
c3
c2
c2
ha
ha
ha
hc
hc
ha
ha
ha

>  <target>  (171) 
0.93

>  <cal>  (171) 
2.357

$$$$
mobley_3425174
     RDKit          3D

  5  4  0  0  0  0  0  0  0  0999 V2000
   -0.0830    0.0940    0.0190 C   0  0  0  0  0  0  0  0  0  0  0  0
   -1.0260   -0.8620   -0.1830 F   0  0  0  0  0  0  0  0  0  0  0  0
    1.5260   -0.6180   -0.1170 Cl  0  0  0  0  0  0  0  0  0  0  0  0
    0.0000    0.0000    0.0000 H   0  0  0  0  0  0  0  0  0  0  0  0
    0.0000    0.0000    0.0000 H   0  0  0  0  0  0  0  0  0  0  0  0
  1  2  1  0
  1  3  1  0
  1  4  1  0
  1  5  1  0
M  END
>  <partial_charges>  (172) 
0.271600008011
-0.213799998164
-0.20530000329
0.0737000033259
0.0737000033259

>  <partial_bond_orders>  (172) 
1.0
1.0
1.0
1.0

>  <atom_types>  (172) 
c3
f
cl
h2
h2

>  <target>  (172) 
-0.77

>  <cal>  (172) 
-0.171

$$$$
mobley_9671033
     RDKit          3D

 13 12  0  0  0  0  0  0  0  0999 V2000
    1.0420    0.0280   -0.3330 C   0  0  0  0  0  0  0  0  0  0  0  0
    1.4380    1.4520   -0.6970 C   0  0  0  0  0  0  0  0  0  0  0  0
    2.8930    1.5600   -1.1250 C   0  0  0  0  0  0  0  0  0  0  0  0
    3.2020    2.9510   -1.4590 N   0  0  0  0  0  0  0  0  0  0  0  0
    3.6200    3.6960   -0.5490 O   0  0  0  0  0  0  0  0  0  0  0  0
    3.0150    3.3240   -2.6350 O   0  0  0  0  0  0  0  0  0  0  0  0
    0.0000    0.0000    0.0000 H   0  0  0  0  0  0  0  0  0  0  0  0
    0.0000    0.0000    0.0000 H   0  0  0  0  0  0  0  0  0  0  0  0
    0.0000    0.0000    0.0000 H   0  0  0  0  0  0  0  0  0  0  0  0
    0.0000    0.0000    0.0000 H   0  0  0  0  0  0  0  0  0  0  0  0
    0.0000    0.0000    0.0000 H   0  0  0  0  0  0  0  0  0  0  0  0
    0.0000    0.0000    0.0000 H   0  0  0  0  0  0  0  0  0  0  0  0
    0.0000    0.0000    0.0000 H   0  0  0  0  0  0  0  0  0  0  0  0
  1  2  1  0
  2  3  1  0
  3  4  1  0
  4  5  1  0
  4  6  1  0
  1  7  1  0
  1  8  1  0
  1  9  1  0
  2 10  1  0
  2 11  1  0
  3 12  1  0
  3 13  1  0
M  CHG  2   5  -1   6  -1
M  END
>  <partial_charges>  (173) 
-0.0938000008464
-0.0947000011802
-0.0750999972224
0.22840000689
-0.210099995136
-0.210099995136
0.0447999984026
0.0447999984026
0.0447999984026
0.0662000030279
0.0662000030279
0.0944000035524
0.0944000035524

>  <partial_bond_orders>  (173) 
1.0
1.0
1.0
1.0
1.0
1.0
1.0
1.0
1.0
1.0
1.0
1.0

>  <atom_types>  (173) 
c3
c3
c3
no
o
o
hc
hc
hc
hc
hc
h1
h1

>  <target>  (173) 
-3.34

>  <cal>  (173) 
-1.632

$$$$
mobley_8052240
     RDKit          3D

 26 28  0  0  0  0  0  0  0  0999 V2000
    1.2900   -1.6870   -0.3520 C   0  0  0  0  0  0  0  0  0  0  0  0
    0.9560   -0.4630    0.2260 C   0  0  0  0  0  0  0  0  0  0  0  0
    1.8480    0.1680    1.0930 C   0  0  0  0  0  0  0  0  0  0  0  0
    3.0810   -0.4280    1.3840 C   0  0  0  0  0  0  0  0  0  0  0  0
    3.4160   -1.6540    0.8060 C   0  0  0  0  0  0  0  0  0  0  0  0
    2.5180   -2.2840   -0.0640 C   0  0  0  0  0  0  0  0  0  0  0  0
    4.7130   -2.2940    1.1040 C   0  0  0  0  0  0  0  0  0  0  0  0
    5.0080   -3.3690    0.5970 O   0  0  0  0  0  0  0  0  0  0  0  0
    5.6520   -1.6180    2.0240 C   0  0  0  0  0  0  0  0  0  0  0  0
    6.8850   -2.2140    2.3150 C   0  0  0  0  0  0  0  0  0  0  0  0
    7.7770   -1.5830    3.1820 C   0  0  0  0  0  0  0  0  0  0  0  0
    7.4420   -0.3590    3.7590 C   0  0  0  0  0  0  0  0  0  0  0  0
    6.2150    0.2380    3.4720 C   0  0  0  0  0  0  0  0  0  0  0  0
    5.3170   -0.3920    2.6020 C   0  0  0  0  0  0  0  0  0  0  0  0
    4.0190    0.2480    2.3040 C   0  0  0  0  0  0  0  0  0  0  0  0
    3.6910    1.3220    2.7910 O   0  0  0  0  0  0  0  0  0  0  0  0
    5.9470    1.4790    4.0950 N   0  0  0  0  0  0  0  0  0  0  0  0
    0.0000    0.0000    0.0000 H   0  0  0  0  0  0  0  0  0  0  0  0
    0.0000    0.0000    0.0000 H   0  0  0  0  0  0  0  0  0  0  0  0
    0.0000    0.0000    0.0000 H   0  0  0  0  0  0  0  0  0  0  0  0
    0.0000    0.0000    0.0000 H   0  0  0  0  0  0  0  0  0  0  0  0
    0.0000    0.0000    0.0000 H   0  0  0  0  0  0  0  0  0  0  0  0
    0.0000    0.0000    0.0000 H   0  0  0  0  0  0  0  0  0  0  0  0
    0.0000    0.0000    0.0000 H   0  0  0  0  0  0  0  0  0  0  0  0
    0.0000    0.0000    0.0000 H   0  0  0  0  0  0  0  0  0  0  0  0
    0.0000    0.0000    0.0000 H   0  0  0  0  0  0  0  0  0  0  0  0
  1  6  2  0
  1  2  1  0
  2  3  2  0
  3  4  1  0
  4 15  1  0
  4  5  2  0
  5  6  1  0
  5  7  1  0
  7  8  2  0
  7  9  1  0
  9 14  2  0
  9 10  1  0
 10 11  2  0
 11 12  1  0
 12 13  2  0
 13 14  1  0
 14 15  1  0
 15 16  2  0
 13 17  1  0
  1 18  1  0
  2 19  1  0
  3 20  1  0
  6 21  1  0
 10 22  1  0
 11 23  1  0
 12 24  1  0
 17 25  1  0
 17 26  1  0
M  END
>  <partial_charges>  (174) 
-0.120200000703
-0.118000000715
-0.0882999971509
-0.126699998975
-0.127200007439
-0.0860999971628
0.582300007343
-0.525600016117
-0.0737000033259
-0.150700002909
-0.0623000003397
-0.211799994111
0.26060000062
-0.233600005507
0.603299975395
-0.578599989414
-0.868099987507
0.139100000262
0.140499994159
0.161699995399
0.158399999142
0.160099998116
0.139300003648
0.136000007391
0.444799989462
0.444799989462

>  <partial_bond_orders>  (174) 
2.0
1.0
2.0
1.0
1.0
2.0
1.0
1.0
2.0
1.0
2.0
1.0
2.0
1.0
2.0
1.0
1.0
2.0
1.0
1.0
1.0
1.0
1.0
1.0
1.0
1.0
1.0
1.0

>  <atom_types>  (174) 
ca
ca
ca
ca
ca
ca
c
o
ca
ca
ca
ca
ca
ca
c
o
nh
ha
ha
ha
ha
ha
ha
ha
hn
hn

>  <target>  (174) 
-9.44

>  <cal>  (174) 
-12.214

$$$$
mobley_3151666
     RDKit          3D

 33 32  0  0  0  0  0  0  0  0999 V2000
   -2.6220    2.3830    0.2540 C   0  0  0  0  0  0  0  0  0  0  0  0
   -3.1470    2.2050   -1.1620 C   0  0  0  0  0  0  0  0  0  0  0  0
   -3.2480    0.7270   -1.5390 C   0  0  0  0  0  0  0  0  0  0  0  0
   -3.7780    0.5510   -2.9650 C   0  0  0  0  0  0  0  0  0  0  0  0
   -3.8780   -0.9290   -3.3390 C   0  0  0  0  0  0  0  0  0  0  0  0
   -4.4030   -1.1640   -4.7580 C   0  0  0  0  0  0  0  0  0  0  0  0
   -4.5030   -2.6440   -5.1330 C   0  0  0  0  0  0  0  0  0  0  0  0
   -5.0330   -2.8200   -6.5580 C   0  0  0  0  0  0  0  0  0  0  0  0
   -5.1340   -4.3010   -6.9350 C   0  0  0  0  0  0  0  0  0  0  0  0
   -5.6590   -4.5020   -8.3510 C   0  0  0  0  0  0  0  0  0  0  0  0
   -5.7330   -5.8880   -8.6490 O   0  0  0  0  0  0  0  0  0  0  0  0
    0.0000    0.0000    0.0000 H   0  0  0  0  0  0  0  0  0  0  0  0
    0.0000    0.0000    0.0000 H   0  0  0  0  0  0  0  0  0  0  0  0
    0.0000    0.0000    0.0000 H   0  0  0  0  0  0  0  0  0  0  0  0
    0.0000    0.0000    0.0000 H   0  0  0  0  0  0  0  0  0  0  0  0
    0.0000    0.0000    0.0000 H   0  0  0  0  0  0  0  0  0  0  0  0
    0.0000    0.0000    0.0000 H   0  0  0  0  0  0  0  0  0  0  0  0
    0.0000    0.0000    0.0000 H   0  0  0  0  0  0  0  0  0  0  0  0
    0.0000    0.0000    0.0000 H   0  0  0  0  0  0  0  0  0  0  0  0
    0.0000    0.0000    0.0000 H   0  0  0  0  0  0  0  0  0  0  0  0
    0.0000    0.0000    0.0000 H   0  0  0  0  0  0  0  0  0  0  0  0
    0.0000    0.0000    0.0000 H   0  0  0  0  0  0  0  0  0  0  0  0
    0.0000    0.0000    0.0000 H   0  0  0  0  0  0  0  0  0  0  0  0
    0.0000    0.0000    0.0000 H   0  0  0  0  0  0  0  0  0  0  0  0
    0.0000    0.0000    0.0000 H   0  0  0  0  0  0  0  0  0  0  0  0
    0.0000    0.0000    0.0000 H   0  0  0  0  0  0  0  0  0  0  0  0
    0.0000    0.0000    0.0000 H   0  0  0  0  0  0  0  0  0  0  0  0
    0.0000    0.0000    0.0000 H   0  0  0  0  0  0  0  0  0  0  0  0
    0.0000    0.0000    0.0000 H   0  0  0  0  0  0  0  0  0  0  0  0
    0.0000    0.0000    0.0000 H   0  0  0  0  0  0  0  0  0  0  0  0
    0.0000    0.0000    0.0000 H   0  0  0  0  0  0  0  0  0  0  0  0
    0.0000    0.0000    0.0000 H   0  0  0  0  0  0  0  0  0  0  0  0
    0.0000    0.0000    0.0000 H   0  0  0  0  0  0  0  0  0  0  0  0
  1  2  1  0
  2  3  1  0
  3  4  1  0
  4  5  1  0
  5  6  1  0
  6  7  1  0
  7  8  1  0
  8  9  1  0
  9 10  1  0
 10 11  1  0
  1 12  1  0
  1 13  1  0
  1 14  1  0
  2 15  1  0
  2 16  1  0
  3 17  1  0
  3 18  1  0
  4 19  1  0
  4 20  1  0
  5 21  1  0
  5 22  1  0
  6 23  1  0
  6 24  1  0
  7 25  1  0
  7 26  1  0
  8 27  1  0
  8 28  1  0
  9 29  1  0
  9 30  1  0
 10 31  1  0
 10 32  1  0
 11 33  1  0
M  END
>  <partial_charges>  (175) 
-0.091899998486
-0.0795999988914
-0.0788000002503
-0.0776000022888
-0.0778999999166
-0.0781000033021
-0.0781000033021
-0.077500000596
-0.0842000022531
0.131600007415
-0.600600004196
0.0329999998212
0.0329999998212
0.0329999998212
0.0377999991179
0.0377999991179
0.0384999997914
0.0384999997914
0.0384000018239
0.0384000018239
0.0395000018179
0.0395000018179
0.0388999991119
0.0388999991119
0.0410000011325
0.0410000011325
0.0388000011444
0.0388000011444
0.0551999993622
0.0551999993622
0.0194000005722
0.0194000005722
0.398400008678

>  <partial_bond_orders>  (175) 
1.0
1.0
1.0
1.0
1.0
1.0
1.0
1.0
1.0
1.0
1.0
1.0
1.0
1.0
1.0
1.0
1.0
1.0
1.0
1.0
1.0
1.0
1.0
1.0
1.0
1.0
1.0
1.0
1.0
1.0
1.0
1.0

>  <atom_types>  (175) 
c3
c3
c3
c3
c3
c3
c3
c3
c3
c3
oh
hc
hc
hc
hc
hc
hc
hc
hc
hc
hc
hc
hc
hc
hc
hc
hc
hc
hc
hc
h1
h1
ho

>  <target>  (175) 
-3.64

>  <cal>  (175) 
-2.446

$$$$
mobley_8809274
     RDKit          3D

 15 15  0  0  0  0  0  0  0  0999 V2000
    1.8850   -1.0360   -0.1120 C   0  0  0  0  0  0  0  0  0  0  0  0
    2.9210   -1.6310    0.6080 C   0  0  0  0  0  0  0  0  0  0  0  0
    2.8780   -1.6520    2.0020 C   0  0  0  0  0  0  0  0  0  0  0  0
    1.8000   -1.0790    2.6760 C   0  0  0  0  0  0  0  0  0  0  0  0
    0.7640   -0.4840    1.9550 C   0  0  0  0  0  0  0  0  0  0  0  0
    0.8070   -0.4630    0.5610 C   0  0  0  0  0  0  0  0  0  0  0  0
    1.7550   -1.1010    4.1660 C   0  0  0  0  0  0  0  0  0  0  0  0
    2.8340   -1.7140    4.7370 F   0  0  0  0  0  0  0  0  0  0  0  0
    1.7120    0.1420    4.7310 F   0  0  0  0  0  0  0  0  0  0  0  0
    0.6610   -1.7610    4.6490 F   0  0  0  0  0  0  0  0  0  0  0  0
    0.0000    0.0000    0.0000 H   0  0  0  0  0  0  0  0  0  0  0  0
    0.0000    0.0000    0.0000 H   0  0  0  0  0  0  0  0  0  0  0  0
    0.0000    0.0000    0.0000 H   0  0  0  0  0  0  0  0  0  0  0  0
    0.0000    0.0000    0.0000 H   0  0  0  0  0  0  0  0  0  0  0  0
    0.0000    0.0000    0.0000 H   0  0  0  0  0  0  0  0  0  0  0  0
  1  6  2  0
  1  2  1  0
  2  3  2  0
  3  4  1  0
  4  5  2  0
  5  6  1  0
  4  7  1  0
  7  8  1  0
  7  9  1  0
  7 10  1  0
  1 11  1  0
  2 12  1  0
  3 13  1  0
  5 14  1  0
  6 15  1  0
M  END
>  <partial_charges>  (176) 
-0.100900001824
-0.134100005031
-0.0815000012517
-0.167699992657
-0.0815000012517
-0.134100005031
0.68599998951
-0.23749999702
-0.23749999702
-0.23749999702
0.139200001955
0.142199993134
0.151399999857
0.151399999857
0.142199993134

>  <partial_bond_orders>  (176) 
2.0
1.0
2.0
1.0
2.0
1.0
1.0
1.0
1.0
1.0
1.0
1.0
1.0
1.0
1.0

>  <atom_types>  (176) 
ca
ca
ca
ca
ca
ca
c3
f
f
f
ha
ha
ha
ha
ha

>  <target>  (176) 
-0.25

>  <cal>  (176) 
-0.57

$$$$
mobley_2845466
     RDKit          3D

 22 24  0  0  0  0  0  0  0  0999 V2000
   -1.4370   -1.5820    0.2690 C   0  0  0  0  0  0  0  0  0  0  0  0
   -2.7270   -1.9050    0.6890 C   0  0  0  0  0  0  0  0  0  0  0  0
   -3.5800   -0.9100    1.1630 C   0  0  0  0  0  0  0  0  0  0  0  0
   -3.1490    0.4150    1.2200 C   0  0  0  0  0  0  0  0  0  0  0  0
   -1.8580    0.7400    0.8000 C   0  0  0  0  0  0  0  0  0  0  0  0
   -1.0040   -0.2570    0.3260 C   0  0  0  0  0  0  0  0  0  0  0  0
    0.6050    0.0880   -0.2070 Cl  0  0  0  0  0  0  0  0  0  0  0  0
   -1.3750    2.3980    0.8940 Cl  0  0  0  0  0  0  0  0  0  0  0  0
   -4.8560   -1.1830    1.5850 O   0  0  0  0  0  0  0  0  0  0  0  0
   -5.2390   -2.4980    1.5120 C   0  0  0  0  0  0  0  0  0  0  0  0
   -6.5290   -2.8210    1.9320 C   0  0  0  0  0  0  0  0  0  0  0  0
   -6.9620   -4.1460    1.8750 C   0  0  0  0  0  0  0  0  0  0  0  0
   -6.1070   -5.1430    1.4010 C   0  0  0  0  0  0  0  0  0  0  0  0
   -4.8170   -4.8180    0.9820 C   0  0  0  0  0  0  0  0  0  0  0  0
   -4.3860   -3.4940    1.0380 C   0  0  0  0  0  0  0  0  0  0  0  0
   -3.1090   -3.2200    0.6160 O   0  0  0  0  0  0  0  0  0  0  0  0
   -6.5900   -6.8010    1.3090 Cl  0  0  0  0  0  0  0  0  0  0  0  0
   -8.5700   -4.4910    2.4080 Cl  0  0  0  0  0  0  0  0  0  0  0  0
    0.0000    0.0000    0.0000 H   0  0  0  0  0  0  0  0  0  0  0  0
    0.0000    0.0000    0.0000 H   0  0  0  0  0  0  0  0  0  0  0  0
    0.0000    0.0000    0.0000 H   0  0  0  0  0  0  0  0  0  0  0  0
    0.0000    0.0000    0.0000 H   0  0  0  0  0  0  0  0  0  0  0  0
  1  6  2  0
  1  2  1  0
  2 16  1  0
  2  3  2  0
  3  4  1  0
  4  5  2  0
  5  6  1  0
  6  7  1  0
  5  8  1  0
  3  9  1  0
  9 10  1  0
 10 15  2  0
 10 11  1  0
 11 12  2  0
 12 13  1  0
 13 14  2  0
 14 15  1  0
 15 16  1  0
 13 17  1  0
 12 18  1  0
  1 19  1  0
  4 20  1  0
 11 21  1  0
 14 22  1  0
M  END
>  <partial_charges>  (177) 
-0.106399998069
0.0709000006318
0.0709000006318
-0.106299996376
0.0200999993831
0.0200999993831
-0.0529999993742
-0.0529999993742
-0.212799996138
0.0709000006318
-0.106299996376
0.0200999993831
0.0200999993831
-0.106299996376
0.0709000006318
-0.212799996138
-0.0529999993742
-0.0529999993742
0.174799993634
0.174799993634
0.174799993634
0.174799993634

>  <partial_bond_orders>  (177) 
2.0
1.0
1.0
2.0
1.0
2.0
1.0
1.0
1.0
1.0
1.0
2.0
1.0
2.0
1.0
2.0
1.0
1.0
1.0
1.0
1.0
1.0
1.0
1.0

>  <atom_types>  (177) 
ca
ca
ca
ca
ca
ca
cl
cl
os
ca
ca
ca
ca
ca
ca
os
cl
cl
ha
ha
ha
ha

>  <target>  (177) 
-3.37

>  <cal>  (177) 
-2.54

$$$$
mobley_4609460
     RDKit          3D

 22 22  0  0  0  0  0  0  0  0999 V2000
   -0.8750   -1.0350   -3.9100 C   0  0  0  0  0  0  0  0  0  0  0  0
    0.5840   -1.0130   -3.5060 C   0  0  0  0  0  0  0  0  0  0  0  0
    0.6720   -1.0310   -2.0780 O   0  0  0  0  0  0  0  0  0  0  0  0
    1.9290   -1.0140   -1.5660 C   0  0  0  0  0  0  0  0  0  0  0  0
    2.9700   -0.9850   -2.2040 O   0  0  0  0  0  0  0  0  0  0  0  0
    1.8850   -1.0360   -0.1120 C   0  0  0  0  0  0  0  0  0  0  0  0
    2.9210   -1.6310    0.6080 C   0  0  0  0  0  0  0  0  0  0  0  0
    2.8780   -1.6520    2.0020 C   0  0  0  0  0  0  0  0  0  0  0  0
    1.8000   -1.0790    2.6760 C   0  0  0  0  0  0  0  0  0  0  0  0
    0.7640   -0.4840    1.9550 C   0  0  0  0  0  0  0  0  0  0  0  0
    0.8070   -0.4630    0.5610 C   0  0  0  0  0  0  0  0  0  0  0  0
    1.7570   -1.0990    4.0360 O   0  0  0  0  0  0  0  0  0  0  0  0
    0.0000    0.0000    0.0000 H   0  0  0  0  0  0  0  0  0  0  0  0
    0.0000    0.0000    0.0000 H   0  0  0  0  0  0  0  0  0  0  0  0
    0.0000    0.0000    0.0000 H   0  0  0  0  0  0  0  0  0  0  0  0
    0.0000    0.0000    0.0000 H   0  0  0  0  0  0  0  0  0  0  0  0
    0.0000    0.0000    0.0000 H   0  0  0  0  0  0  0  0  0  0  0  0
    0.0000    0.0000    0.0000 H   0  0  0  0  0  0  0  0  0  0  0  0
    0.0000    0.0000    0.0000 H   0  0  0  0  0  0  0  0  0  0  0  0
    0.0000    0.0000    0.0000 H   0  0  0  0  0  0  0  0  0  0  0  0
    0.0000    0.0000    0.0000 H   0  0  0  0  0  0  0  0  0  0  0  0
    0.0000    0.0000    0.0000 H   0  0  0  0  0  0  0  0  0  0  0  0
  1  2  1  0
  2  3  1  0
  3  4  1  0
  4  5  2  0
  4  6  1  0
  6 11  2  0
  6  7  1  0
  7  8  2  0
  8  9  1  0
  9 10  2  0
 10 11  1  0
  9 12  1  0
  1 13  1  0
  1 14  1  0
  1 15  1  0
  2 16  1  0
  2 17  1  0
  7 18  1  0
  8 19  1  0
 10 20  1  0
 11 21  1  0
 12 22  1  0
M  END
>  <partial_charges>  (178) 
-0.10000000149
0.135399997234
-0.439700007439
0.651799976826
-0.541899979115
-0.170599997044
-0.0362000018358
-0.202700003982
0.156200006604
-0.202700003982
-0.0362000018358
-0.490599989891
0.0472000017762
0.0472000017762
0.0472000017762
0.0502999983728
0.0502999983728
0.156499996781
0.148900002241
0.148900002241
0.156499996781
0.424100011587

>  <partial_bond_orders>  (178) 
1.0
1.0
1.0
2.0
1.0
2.0
1.0
2.0
1.0
2.0
1.0
1.0
1.0
1.0
1.0
1.0
1.0
1.0
1.0
1.0
1.0
1.0

>  <atom_types>  (178) 
c3
c3
os
c
o
ca
ca
ca
ca
ca
ca
oh
hc
hc
hc
h1
h1
ha
ha
ha
ha
ho

>  <target>  (178) 
-9.2

>  <cal>  (178) 
-9.535

$$$$
mobley_3982371
     RDKit          3D

 11 10  0  0  0  0  0  0  0  0999 V2000
   -0.9370   -0.5550    0.0880 C   0  0  0  0  0  0  0  0  0  0  0  0
   -1.6380   -0.5840   -1.2370 C   0  0  0  0  0  0  0  0  0  0  0  0
   -1.9040   -1.6090   -1.8490 O   0  0  0  0  0  0  0  0  0  0  0  0
   -1.9190    0.6900   -1.6320 O   0  0  0  0  0  0  0  0  0  0  0  0
   -2.5910    0.8100   -2.8890 C   0  0  0  0  0  0  0  0  0  0  0  0
    0.0000    0.0000    0.0000 H   0  0  0  0  0  0  0  0  0  0  0  0
    0.0000    0.0000    0.0000 H   0  0  0  0  0  0  0  0  0  0  0  0
    0.0000    0.0000    0.0000 H   0  0  0  0  0  0  0  0  0  0  0  0
    0.0000    0.0000    0.0000 H   0  0  0  0  0  0  0  0  0  0  0  0
    0.0000    0.0000    0.0000 H   0  0  0  0  0  0  0  0  0  0  0  0
    0.0000    0.0000    0.0000 H   0  0  0  0  0  0  0  0  0  0  0  0
  1  2  1  0
  2  3  2  0
  2  4  1  0
  4  5  1  0
  1  6  1  0
  1  7  1  0
  1  8  1  0
  5  9  1  0
  5 10  1  0
  5 11  1  0
M  END
>  <partial_charges>  (179) 
-0.150199994445
0.630800008774
-0.537999987602
-0.446000009775
0.125599995255
0.076099999249
0.076099999249
0.076099999249
0.0498999990523
0.0498999990523
0.0498999990523

>  <partial_bond_orders>  (179) 
1.0
2.0
1.0
1.0
1.0
1.0
1.0
1.0
1.0
1.0

>  <atom_types>  (179) 
c3
c
o
os
c3
hc
hc
hc
h1
h1
h1

>  <target>  (179) 
-3.13

>  <cal>  (179) 
-3.83

$$$$
mobley_6430250
     RDKit          3D

 21 21  0  0  0  0  0  0  0  0999 V2000
    2.6810    0.2610   -3.6440 C   0  0  0  0  0  0  0  0  0  0  0  0
    2.6350    0.2400   -2.1240 C   0  0  0  0  0  0  0  0  0  0  0  0
    1.9310   -1.0140   -1.6030 C   0  0  0  0  0  0  0  0  0  0  0  0
    1.8850   -1.0360   -0.1120 C   0  0  0  0  0  0  0  0  0  0  0  0
    2.9210   -1.6310    0.6080 C   0  0  0  0  0  0  0  0  0  0  0  0
    2.8780   -1.6520    2.0020 C   0  0  0  0  0  0  0  0  0  0  0  0
    1.8000   -1.0790    2.6760 C   0  0  0  0  0  0  0  0  0  0  0  0
    0.7640   -0.4840    1.9550 C   0  0  0  0  0  0  0  0  0  0  0  0
    0.8070   -0.4630    0.5610 C   0  0  0  0  0  0  0  0  0  0  0  0
    0.0000    0.0000    0.0000 H   0  0  0  0  0  0  0  0  0  0  0  0
    0.0000    0.0000    0.0000 H   0  0  0  0  0  0  0  0  0  0  0  0
    0.0000    0.0000    0.0000 H   0  0  0  0  0  0  0  0  0  0  0  0
    0.0000    0.0000    0.0000 H   0  0  0  0  0  0  0  0  0  0  0  0
    0.0000    0.0000    0.0000 H   0  0  0  0  0  0  0  0  0  0  0  0
    0.0000    0.0000    0.0000 H   0  0  0  0  0  0  0  0  0  0  0  0
    0.0000    0.0000    0.0000 H   0  0  0  0  0  0  0  0  0  0  0  0
    0.0000    0.0000    0.0000 H   0  0  0  0  0  0  0  0  0  0  0  0
    0.0000    0.0000    0.0000 H   0  0  0  0  0  0  0  0  0  0  0  0
    0.0000    0.0000    0.0000 H   0  0  0  0  0  0  0  0  0  0  0  0
    0.0000    0.0000    0.0000 H   0  0  0  0  0  0  0  0  0  0  0  0
    0.0000    0.0000    0.0000 H   0  0  0  0  0  0  0  0  0  0  0  0
  1  2  1  0
  2  3  1  0
  3  4  1  0
  4  9  2  0
  4  5  1  0
  5  6  2  0
  6  7  1  0
  7  8  2  0
  8  9  1  0
  1 10  1  0
  1 11  1  0
  1 12  1  0
  2 13  1  0
  2 14  1  0
  3 15  1  0
  3 16  1  0
  5 17  1  0
  6 18  1  0
  7 19  1  0
  8 20  1  0
  9 21  1  0
M  END
>  <partial_charges>  (180) 
-0.0935000032187
-0.0769999995828
-0.0373999997973
-0.0776000022888
-0.127700001001
-0.128499999642
-0.133599996567
-0.128499999642
-0.127700001001
0.0335000008345
0.0335000008345
0.0335000008345
0.043299999088
0.043299999088
0.0467999987304
0.0467999987304
0.130600005388
0.129999995232
0.129700005054
0.129999995232
0.130600005388

>  <partial_bond_orders>  (180) 
1.0
1.0
1.0
2.0
1.0
2.0
1.0
2.0
1.0
1.0
1.0
1.0
1.0
1.0
1.0
1.0
1.0
1.0
1.0
1.0
1.0

>  <atom_types>  (180) 
c3
c3
c3
ca
ca
ca
ca
ca
ca
hc
hc
hc
hc
hc
hc
hc
ha
ha
ha
ha
ha

>  <target>  (180) 
-0.53

>  <cal>  (180) 
-0.511

$$$$
mobley_7497999
     RDKit          3D

 17 17  0  0  0  0  0  0  0  0999 V2000
    1.2620    0.1340   -2.2530 C   0  0  0  0  0  0  0  0  0  0  0  0
    1.9290   -1.0160   -1.5660 C   0  0  0  0  0  0  0  0  0  0  0  0
    2.4680   -1.8730   -2.2580 O   0  0  0  0  0  0  0  0  0  0  0  0
    1.8850   -1.0360   -0.1120 C   0  0  0  0  0  0  0  0  0  0  0  0
    2.9210   -1.6310    0.6080 C   0  0  0  0  0  0  0  0  0  0  0  0
    2.8780   -1.6520    2.0020 C   0  0  0  0  0  0  0  0  0  0  0  0
    1.8000   -1.0790    2.6760 C   0  0  0  0  0  0  0  0  0  0  0  0
    0.7640   -0.4840    1.9550 C   0  0  0  0  0  0  0  0  0  0  0  0
    0.8070   -0.4630    0.5610 C   0  0  0  0  0  0  0  0  0  0  0  0
    0.0000    0.0000    0.0000 H   0  0  0  0  0  0  0  0  0  0  0  0
    0.0000    0.0000    0.0000 H   0  0  0  0  0  0  0  0  0  0  0  0
    0.0000    0.0000    0.0000 H   0  0  0  0  0  0  0  0  0  0  0  0
    0.0000    0.0000    0.0000 H   0  0  0  0  0  0  0  0  0  0  0  0
    0.0000    0.0000    0.0000 H   0  0  0  0  0  0  0  0  0  0  0  0
    0.0000    0.0000    0.0000 H   0  0  0  0  0  0  0  0  0  0  0  0
    0.0000    0.0000    0.0000 H   0  0  0  0  0  0  0  0  0  0  0  0
    0.0000    0.0000    0.0000 H   0  0  0  0  0  0  0  0  0  0  0  0
  1  2  1  0
  2  3  2  0
  2  4  1  0
  4  9  2  0
  4  5  1  0
  5  6  2  0
  6  7  1  0
  7  8  2  0
  8  9  1  0
  1 10  1  0
  1 11  1  0
  1 12  1  0
  5 13  1  0
  6 14  1  0
  7 15  1  0
  8 16  1  0
  9 17  1  0
M  END
>  <partial_charges>  (181) 
-0.198200002313
0.575900018215
-0.5325999856
-0.173800006509
-0.0861999988556
-0.141000002623
-0.105200000107
-0.141000002623
-0.0861999988556
0.0649000033736
0.0649000033736
0.0649000033736
0.143299996853
0.136600002646
0.133900001645
0.136600002646
0.143299996853

>  <partial_bond_orders>  (181) 
1.0
2.0
1.0
2.0
1.0
2.0
1.0
2.0
1.0
1.0
1.0
1.0
1.0
1.0
1.0
1.0
1.0

>  <atom_types>  (181) 
c3
c
o
ca
ca
ca
ca
ca
ca
hc
hc
hc
ha
ha
ha
ha
ha

>  <target>  (181) 
-4.58

>  <cal>  (181) 
-5.078

$$$$
mobley_6235784
     RDKit          3D

 14 13  0  0  1  0  0  0  0  0999 V2000
    1.6170    0.9240   -0.5790 C   0  0  0  0  0  0  0  0  0  0  0  0
    0.7290   -0.0110    0.2310 C   0  0  0  0  0  0  0  0  0  0  0  0
   -0.7340   -0.0130   -0.2250 C   0  0  0  0  0  0  0  0  0  0  0  0
   -1.5680   -0.9810    0.6060 C   0  0  0  0  0  0  0  0  0  0  0  0
   -0.8680   -0.4690   -1.9510 Cl  0  0  0  0  0  0  0  0  0  0  0  0
    0.0000    0.0000    0.0000 H   0  0  0  0  0  0  0  0  0  0  0  0
    0.0000    0.0000    0.0000 H   0  0  0  0  0  0  0  0  0  0  0  0
    0.0000    0.0000    0.0000 H   0  0  0  0  0  0  0  0  0  0  0  0
    0.0000    0.0000    0.0000 H   0  0  0  0  0  0  0  0  0  0  0  0
    0.0000    0.0000    0.0000 H   0  0  0  0  0  0  0  0  0  0  0  0
    0.0000    0.0000    0.0000 H   0  0  0  0  0  0  0  0  0  0  0  0
    0.0000    0.0000    0.0000 H   0  0  0  0  0  0  0  0  0  0  0  0
    0.0000    0.0000    0.0000 H   0  0  0  0  0  0  0  0  0  0  0  0
    0.0000    0.0000    0.0000 H   0  0  0  0  0  0  0  0  0  0  0  0
  1  2  1  0
  2  3  1  0
  3  4  1  0
  3  5  1  0
  1  6  1  0
  1  7  1  0
  1  8  1  0
  2  9  1  0
  2 10  1  0
  3 11  1  0
  4 12  1  0
  4 13  1  0
  4 14  1  0
M  END
>  <partial_charges>  (182) 
-0.0966999977827
-0.0860000029206
0.0615999996662
0.069200001657
-0.103900000453
-0.212099999189
0.0406999997795
0.0406999997795
0.0406999997795
0.0502999983728
0.0502999983728
0.0483999997377
0.0483999997377
0.0483999997377

>  <partial_bond_orders>  (182) 
1.0
1.0
1.0
1.0
1.0
1.0
1.0
1.0
1.0
1.0
1.0
1.0
1.0

>  <atom_types>  (182) 
c3
c3
c3
h1
c3
cl
hc
hc
hc
hc
hc
hc
hc
hc

>  <target>  (182) 
0.0

>  <cal>  (182) 
0.927

$$$$
mobley_5347550
     RDKit          3D

 12 11  0  0  0  0  0  0  0  0999 V2000
    0.7750    0.3490    1.7590 C   0  0  0  0  0  0  0  0  0  0  0  0
    0.3450    0.7390    0.4630 O   0  0  0  0  0  0  0  0  0  0  0  0
   -0.2500   -0.3320   -0.2640 C   0  0  0  0  0  0  0  0  0  0  0  0
   -0.6920    0.1340   -1.6410 C   0  0  0  0  0  0  0  0  0  0  0  0
   -1.4360   -1.2060   -2.5470 Cl  0  0  0  0  0  0  0  0  0  0  0  0
    0.6860    0.7810   -2.5680 Cl  0  0  0  0  0  0  0  0  0  0  0  0
   -1.3230   -0.7790    0.4370 F   0  0  0  0  0  0  0  0  0  0  0  0
    0.6320   -1.3570   -0.3600 F   0  0  0  0  0  0  0  0  0  0  0  0
    0.0000    0.0000    0.0000 H   0  0  0  0  0  0  0  0  0  0  0  0
    0.0000    0.0000    0.0000 H   0  0  0  0  0  0  0  0  0  0  0  0
    0.0000    0.0000    0.0000 H   0  0  0  0  0  0  0  0  0  0  0  0
    0.0000    0.0000    0.0000 H   0  0  0  0  0  0  0  0  0  0  0  0
  1  2  1  0
  2  3  1  0
  3  4  1  0
  4  5  1  0
  4  6  1  0
  3  7  1  0
  3  8  1  0
  1  9  1  0
  1 10  1  0
  1 11  1  0
  4 12  1  0
M  END
>  <partial_charges>  (183) 
0.112199999392
-0.442900002003
0.58109998703
0.115199998021
-0.0998999997973
-0.0998999997973
-0.230199992657
-0.230199992657
0.0562999993563
0.0562999993563
0.0562999993563
0.125699996948

>  <partial_bond_orders>  (183) 
1.0
1.0
1.0
1.0
1.0
1.0
1.0
1.0
1.0
1.0
1.0

>  <atom_types>  (183) 
c3
os
c3
c3
cl
cl
f
f
h1
h1
h1
h2

>  <target>  (183) 
-1.12

>  <cal>  (183) 
-0.685

$$$$
mobley_7393673
     RDKit          3D

 22 22  0  0  0  0  0  0  0  0999 V2000
    0.8350   -0.3920   -2.1380 C   0  0  0  0  0  0  0  0  0  0  0  0
    1.9270   -1.0160   -1.4730 O   0  0  0  0  0  0  0  0  0  0  0  0
    1.8850   -1.0360   -0.1120 C   0  0  0  0  0  0  0  0  0  0  0  0
    2.9210   -1.6310    0.6080 C   0  0  0  0  0  0  0  0  0  0  0  0
    2.8780   -1.6520    2.0020 C   0  0  0  0  0  0  0  0  0  0  0  0
    1.8000   -1.0790    2.6760 C   0  0  0  0  0  0  0  0  0  0  0  0
    0.7640   -0.4840    1.9550 C   0  0  0  0  0  0  0  0  0  0  0  0
    0.8070   -0.4630    0.5610 C   0  0  0  0  0  0  0  0  0  0  0  0
    1.7560   -1.0990    4.1290 C   0  0  0  0  0  0  0  0  0  0  0  0
    2.6300   -1.6020    4.8490 O   0  0  0  0  0  0  0  0  0  0  0  0
    0.6280   -0.4910    4.6080 O   0  0  0  0  0  0  0  0  0  0  0  0
    0.4710   -0.4460    6.0300 C   0  0  0  0  0  0  0  0  0  0  0  0
    0.0000    0.0000    0.0000 H   0  0  0  0  0  0  0  0  0  0  0  0
    0.0000    0.0000    0.0000 H   0  0  0  0  0  0  0  0  0  0  0  0
    0.0000    0.0000    0.0000 H   0  0  0  0  0  0  0  0  0  0  0  0
    0.0000    0.0000    0.0000 H   0  0  0  0  0  0  0  0  0  0  0  0
    0.0000    0.0000    0.0000 H   0  0  0  0  0  0  0  0  0  0  0  0
    0.0000    0.0000    0.0000 H   0  0  0  0  0  0  0  0  0  0  0  0
    0.0000    0.0000    0.0000 H   0  0  0  0  0  0  0  0  0  0  0  0
    0.0000    0.0000    0.0000 H   0  0  0  0  0  0  0  0  0  0  0  0
    0.0000    0.0000    0.0000 H   0  0  0  0  0  0  0  0  0  0  0  0
    0.0000    0.0000    0.0000 H   0  0  0  0  0  0  0  0  0  0  0  0
  1  2  1  0
  2  3  1  0
  3  8  2  0
  3  4  1  0
  4  5  2  0
  5  6  1  0
  6  7  2  0
  7  8  1  0
  6  9  1  0
  9 10  2  0
  9 11  1  0
 11 12  1  0
  1 13  1  0
  1 14  1  0
  1 15  1  0
  4 16  1  0
  5 17  1  0
  7 18  1  0
  8 19  1  0
 12 20  1  0
 12 21  1  0
 12 22  1  0
M  END
>  <partial_charges>  (184) 
0.108000002801
-0.317999988794
0.156399995089
-0.201399996877
-0.0368000008166
-0.173700004816
-0.0368000008166
-0.201399996877
0.65189999342
-0.542900025845
-0.448199987411
0.129600003362
0.0489999987185
0.0489999987185
0.0489999987185
0.150499999523
0.157900005579
0.157900005579
0.150499999523
0.0498999990523
0.0498999990523
0.0498999990523

>  <partial_bond_orders>  (184) 
1.0
1.0
2.0
1.0
2.0
1.0
2.0
1.0
1.0
2.0
1.0
1.0
1.0
1.0
1.0
1.0
1.0
1.0
1.0
1.0
1.0
1.0

>  <atom_types>  (184) 
c3
os
ca
ca
ca
ca
ca
ca
c
o
os
c3
h1
h1
h1
ha
ha
ha
ha
h1
h1
h1

>  <target>  (184) 
-5.33

>  <cal>  (184) 
-6.462

$$$$
mobley_5056289
     RDKit          3D

 16 16  0  0  1  0  0  0  0  0999 V2000
    0.5050   -4.0080    1.1890 C   0  0  0  0  0  0  0  0  0  0  0  0
    0.2540   -2.6640    0.5330 C   0  0  0  0  0  0  0  0  0  0  0  0
    0.6910   -1.4840    1.3850 C   0  0  0  0  0  0  0  0  0  0  0  0
    0.9500   -0.4350    0.3330 C   0  0  0  0  0  0  0  0  0  0  0  0
    1.5630   -1.2540   -0.7830 C   0  0  0  0  0  0  0  0  0  0  0  0
    1.0010   -2.5720   -0.6920 O   0  0  0  0  0  0  0  0  0  0  0  0
    0.0000    0.0000    0.0000 H   0  0  0  0  0  0  0  0  0  0  0  0
    0.0000    0.0000    0.0000 H   0  0  0  0  0  0  0  0  0  0  0  0
    0.0000    0.0000    0.0000 H   0  0  0  0  0  0  0  0  0  0  0  0
    0.0000    0.0000    0.0000 H   0  0  0  0  0  0  0  0  0  0  0  0
    0.0000    0.0000    0.0000 H   0  0  0  0  0  0  0  0  0  0  0  0
    0.0000    0.0000    0.0000 H   0  0  0  0  0  0  0  0  0  0  0  0
    0.0000    0.0000    0.0000 H   0  0  0  0  0  0  0  0  0  0  0  0
    0.0000    0.0000    0.0000 H   0  0  0  0  0  0  0  0  0  0  0  0
    0.0000    0.0000    0.0000 H   0  0  0  0  0  0  0  0  0  0  0  0
    0.0000    0.0000    0.0000 H   0  0  0  0  0  0  0  0  0  0  0  0
  1  2  1  0
  2  6  1  0
  2  3  1  0
  3  4  1  0
  4  5  1  0
  5  6  1  0
  1  7  1  0
  1  8  1  0
  1  9  1  0
  2 10  1  0
  3 11  1  0
  3 12  1  0
  4 13  1  0
  4 14  1  0
  5 15  1  0
  5 16  1  0
M  END
>  <partial_charges>  (185) 
-0.0940999984741
0.136299997568
0.0366000011563
-0.107400000095
-0.108400002122
0.125799998641
-0.423799991608
0.0445999987423
0.0445999987423
0.0445999987423
0.0533999986947
0.0533999986947
0.0522000007331
0.0522000007331
0.0450999997556
0.0450999997556

>  <partial_bond_orders>  (185) 
1.0
1.0
1.0
1.0
1.0
1.0
1.0
1.0
1.0
1.0
1.0
1.0
1.0
1.0
1.0
1.0

>  <atom_types>  (185) 
c3
c3
h1
c3
c3
c3
os
hc
hc
hc
hc
hc
hc
hc
h1
h1

>  <target>  (185) 
-3.3

>  <cal>  (185) 
-1.984

$$$$
mobley_6973347
     RDKit          3D

 14 13  0  0  0  0  0  0  0  0999 V2000
   -1.8910    1.8640   -3.7230 C   0  0  0  0  0  0  0  0  0  0  0  0
   -2.5900    0.8100   -2.8900 C   0  0  0  0  0  0  0  0  0  0  0  0
   -1.9190    0.6900   -1.6320 O   0  0  0  0  0  0  0  0  0  0  0  0
   -2.4440   -0.2300   -0.7730 C   0  0  0  0  0  0  0  0  0  0  0  0
   -3.4150   -0.9440   -0.9800 O   0  0  0  0  0  0  0  0  0  0  0  0
   -1.6440   -0.2460    0.4940 C   0  0  0  0  0  0  0  0  0  0  0  0
    0.0000    0.0000    0.0000 H   0  0  0  0  0  0  0  0  0  0  0  0
    0.0000    0.0000    0.0000 H   0  0  0  0  0  0  0  0  0  0  0  0
    0.0000    0.0000    0.0000 H   0  0  0  0  0  0  0  0  0  0  0  0
    0.0000    0.0000    0.0000 H   0  0  0  0  0  0  0  0  0  0  0  0
    0.0000    0.0000    0.0000 H   0  0  0  0  0  0  0  0  0  0  0  0
    0.0000    0.0000    0.0000 H   0  0  0  0  0  0  0  0  0  0  0  0
    0.0000    0.0000    0.0000 H   0  0  0  0  0  0  0  0  0  0  0  0
    0.0000    0.0000    0.0000 H   0  0  0  0  0  0  0  0  0  0  0  0
  1  2  1  0
  2  3  1  0
  3  4  1  0
  4  5  2  0
  4  6  1  0
  1  7  1  0
  1  8  1  0
  1  9  1  0
  2 10  1  0
  2 11  1  0
  6 12  1  0
  6 13  1  0
  6 14  1  0
M  END
>  <partial_charges>  (186) 
-0.0997999981046
0.135299995542
-0.441700011492
0.63069999218
-0.544099986553
-0.151299998164
0.0474000014365
0.0474000014365
0.0474000014365
0.0507000014186
0.0507000014186
0.0758000016212
0.0758000016212
0.0758000016212

>  <partial_bond_orders>  (186) 
1.0
1.0
1.0
2.0
1.0
1.0
1.0
1.0
1.0
1.0
1.0
1.0
1.0

>  <atom_types>  (186) 
c3
c3
os
c
o
c3
hc
hc
hc
h1
h1
hc
hc
hc

>  <target>  (186) 
-2.94

>  <cal>  (186) 
-3.745

$$$$
mobley_3746675
     RDKit          3D

 19 19  0  0  0  0  0  0  0  0999 V2000
    1.9300    0.2620   -2.3740 C   0  0  0  0  0  0  0  0  0  0  0  0
    1.9300   -1.0140   -1.5660 C   0  0  0  0  0  0  0  0  0  0  0  0
    1.9830   -2.1960   -2.2090 C   0  0  0  0  0  0  0  0  0  0  0  0
    1.8850   -1.0360   -0.1120 C   0  0  0  0  0  0  0  0  0  0  0  0
    2.9210   -1.6310    0.6080 C   0  0  0  0  0  0  0  0  0  0  0  0
    2.8780   -1.6520    2.0020 C   0  0  0  0  0  0  0  0  0  0  0  0
    1.8000   -1.0790    2.6760 C   0  0  0  0  0  0  0  0  0  0  0  0
    0.7640   -0.4840    1.9550 C   0  0  0  0  0  0  0  0  0  0  0  0
    0.8070   -0.4630    0.5610 C   0  0  0  0  0  0  0  0  0  0  0  0
    0.0000    0.0000    0.0000 H   0  0  0  0  0  0  0  0  0  0  0  0
    0.0000    0.0000    0.0000 H   0  0  0  0  0  0  0  0  0  0  0  0
    0.0000    0.0000    0.0000 H   0  0  0  0  0  0  0  0  0  0  0  0
    0.0000    0.0000    0.0000 H   0  0  0  0  0  0  0  0  0  0  0  0
    0.0000    0.0000    0.0000 H   0  0  0  0  0  0  0  0  0  0  0  0
    0.0000    0.0000    0.0000 H   0  0  0  0  0  0  0  0  0  0  0  0
    0.0000    0.0000    0.0000 H   0  0  0  0  0  0  0  0  0  0  0  0
    0.0000    0.0000    0.0000 H   0  0  0  0  0  0  0  0  0  0  0  0
    0.0000    0.0000    0.0000 H   0  0  0  0  0  0  0  0  0  0  0  0
    0.0000    0.0000    0.0000 H   0  0  0  0  0  0  0  0  0  0  0  0
  1  2  1  0
  2  3  2  3
  2  4  1  0
  4  9  2  0
  4  5  1  0
  5  6  2  0
  6  7  1  0
  7  8  2  0
  8  9  1  0
  1 10  1  0
  1 11  1  0
  1 12  1  0
  3 13  1  0
  3 14  1  0
  5 15  1  0
  6 16  1  0
  7 17  1  0
  8 18  1  0
  9 19  1  0
M  END
>  <partial_charges>  (187) 
-0.0575999990106
-0.0653000026941
-0.218500003219
-0.0524999983609
-0.11819999665
-0.131200000644
-0.129600003362
-0.131200000644
-0.11819999665
0.0441000014544
0.0441000014544
0.0441000014544
0.114799998701
0.114799998701
0.134100005031
0.130999997258
0.130400002003
0.130999997258
0.134100005031

>  <partial_bond_orders>  (187) 
1.0
2.0
1.0
2.0
1.0
2.0
1.0
2.0
1.0
1.0
1.0
1.0
1.0
1.0
1.0
1.0
1.0
1.0
1.0

>  <atom_types>  (187) 
c3
ce
c2
ca
ca
ca
ca
ca
ca
hc
hc
hc
ha
ha
ha
ha
ha
ha
ha

>  <target>  (187) 
-1.24

>  <cal>  (187) 
-0.651

$$$$
mobley_4630641
     RDKit          3D

 16 15  0  0  0  0  0  0  0  0999 V2000
    0.3040    0.8200    2.4300 C   0  0  0  0  0  0  0  0  0  0  0  0
   -0.8530    0.2360    1.8470 O   0  0  0  0  0  0  0  0  0  0  0  0
   -0.8940    0.4510    0.4420 C   0  0  0  0  0  0  0  0  0  0  0  0
   -2.1460   -0.1940   -0.1210 C   0  0  0  0  0  0  0  0  0  0  0  0
   -2.1150   -1.5890    0.1550 O   0  0  0  0  0  0  0  0  0  0  0  0
   -3.2680   -2.2460   -0.3510 C   0  0  0  0  0  0  0  0  0  0  0  0
    0.0000    0.0000    0.0000 H   0  0  0  0  0  0  0  0  0  0  0  0
    0.0000    0.0000    0.0000 H   0  0  0  0  0  0  0  0  0  0  0  0
    0.0000    0.0000    0.0000 H   0  0  0  0  0  0  0  0  0  0  0  0
    0.0000    0.0000    0.0000 H   0  0  0  0  0  0  0  0  0  0  0  0
    0.0000    0.0000    0.0000 H   0  0  0  0  0  0  0  0  0  0  0  0
    0.0000    0.0000    0.0000 H   0  0  0  0  0  0  0  0  0  0  0  0
    0.0000    0.0000    0.0000 H   0  0  0  0  0  0  0  0  0  0  0  0
    0.0000    0.0000    0.0000 H   0  0  0  0  0  0  0  0  0  0  0  0
    0.0000    0.0000    0.0000 H   0  0  0  0  0  0  0  0  0  0  0  0
    0.0000    0.0000    0.0000 H   0  0  0  0  0  0  0  0  0  0  0  0
  1  2  1  0
  2  3  1  0
  3  4  1  0
  4  5  1  0
  5  6  1  0
  1  7  1  0
  1  8  1  0
  1  9  1  0
  3 10  1  0
  3 11  1  0
  4 12  1  0
  4 13  1  0
  6 14  1  0
  6 15  1  0
  6 16  1  0
M  END
>  <partial_charges>  (188) 
0.114299997687
-0.405999988317
0.127000004053
0.127000004053
-0.405999988317
0.114299997687
0.0322999991477
0.0322999991477
0.0322999991477
0.033900000155
0.033900000155
0.033900000155
0.033900000155
0.0322999991477
0.0322999991477
0.0322999991477

>  <partial_bond_orders>  (188) 
1.0
1.0
1.0
1.0
1.0
1.0
1.0
1.0
1.0
1.0
1.0
1.0
1.0
1.0
1.0

>  <atom_types>  (188) 
c3
os
c3
c3
os
c3
h1
h1
h1
h1
h1
h1
h1
h1
h1
h1

>  <target>  (188) 
-4.84

>  <cal>  (188) 
-3.103

$$$$
mobley_5520946
     RDKit          3D

 13 13  0  0  0  0  0  0  0  0999 V2000
    1.8850   -1.0360   -0.1120 C   0  0  0  0  0  0  0  0  0  0  0  0
    2.9210   -1.6310    0.6080 C   0  0  0  0  0  0  0  0  0  0  0  0
    2.8780   -1.6520    2.0020 C   0  0  0  0  0  0  0  0  0  0  0  0
    1.8000   -1.0790    2.6760 C   0  0  0  0  0  0  0  0  0  0  0  0
    0.7640   -0.4840    1.9550 C   0  0  0  0  0  0  0  0  0  0  0  0
    0.8070   -0.4630    0.5610 C   0  0  0  0  0  0  0  0  0  0  0  0
    1.7450   -1.1050    4.4570 S   0  0  0  0  0  0  0  0  0  0  0  0
    0.0000    0.0000    0.0000 H   0  0  0  0  0  0  0  0  0  0  0  0
    0.0000    0.0000    0.0000 H   0  0  0  0  0  0  0  0  0  0  0  0
    0.0000    0.0000    0.0000 H   0  0  0  0  0  0  0  0  0  0  0  0
    0.0000    0.0000    0.0000 H   0  0  0  0  0  0  0  0  0  0  0  0
    0.0000    0.0000    0.0000 H   0  0  0  0  0  0  0  0  0  0  0  0
    0.0000    0.0000    0.0000 H   0  0  0  0  0  0  0  0  0  0  0  0
  1  6  2  0
  1  2  1  0
  2  3  2  0
  3  4  1  0
  4  5  2  0
  5  6  1  0
  4  7  1  0
  1  8  1  0
  2  9  1  0
  3 10  1  0
  5 11  1  0
  6 12  1  0
  7 13  1  0
M  END
>  <partial_charges>  (189) 
-0.137099996209
-0.113099999726
-0.13220000267
0.0172000005841
-0.13220000267
-0.113099999726
-0.256099998951
0.134200006723
0.13330000639
0.136700004339
0.136700004339
0.13330000639
0.192499995232

>  <partial_bond_orders>  (189) 
2.0
1.0
2.0
1.0
2.0
1.0
1.0
1.0
1.0
1.0
1.0
1.0
1.0

>  <atom_types>  (189) 
ca
ca
ca
ca
ca
ca
sh
ha
ha
ha
ha
ha
hs

>  <target>  (189) 
-2.55

>  <cal>  (189) 
-1.501

$$$$
mobley_8765203
     RDKit          3D

 13 12  0  0  0  0  0  0  0  0999 V2000
   -0.5220   -2.4670   -1.0270 C   0  0  0  0  0  0  0  0  0  0  0  0
   -0.6570   -2.6890    0.4540 C   0  0  0  0  0  0  0  0  0  0  0  0
   -0.9690   -3.9040    0.9360 C   0  0  0  0  0  0  0  0  0  0  0  0
   -0.4460   -1.5740    1.3660 C   0  0  0  0  0  0  0  0  0  0  0  0
   -0.1320   -0.3170    1.0280 C   0  0  0  0  0  0  0  0  0  0  0  0
    0.0000    0.0000    0.0000 H   0  0  0  0  0  0  0  0  0  0  0  0
    0.0000    0.0000    0.0000 H   0  0  0  0  0  0  0  0  0  0  0  0
    0.0000    0.0000    0.0000 H   0  0  0  0  0  0  0  0  0  0  0  0
    0.0000    0.0000    0.0000 H   0  0  0  0  0  0  0  0  0  0  0  0
    0.0000    0.0000    0.0000 H   0  0  0  0  0  0  0  0  0  0  0  0
    0.0000    0.0000    0.0000 H   0  0  0  0  0  0  0  0  0  0  0  0
    0.0000    0.0000    0.0000 H   0  0  0  0  0  0  0  0  0  0  0  0
    0.0000    0.0000    0.0000 H   0  0  0  0  0  0  0  0  0  0  0  0
  1  2  1  0
  2  3  2  3
  2  4  1  0
  4  5  2  3
  1  6  1  0
  1  7  1  0
  1  8  1  0
  3  9  1  0
  3 10  1  0
  4 11  1  0
  5 12  1  0
  5 13  1  0
M  END
>  <partial_charges>  (190) 
-0.0619000010192
-0.0803000032902
-0.215200006962
-0.128800004721
-0.211099997163
0.0428000018001
0.0428000018001
0.0428000018001
0.112999998033
0.112999998033
0.11819999665
0.112400002778
0.112400002778

>  <partial_bond_orders>  (190) 
1.0
2.0
1.0
2.0
1.0
1.0
1.0
1.0
1.0
1.0
1.0
1.0

>  <atom_types>  (190) 
c3
ce
c2
ce
c2
hc
hc
hc
ha
ha
ha
ha
ha

>  <target>  (190) 
0.68

>  <cal>  (190) 
1.824

$$$$
mobley_4375719
     RDKit          3D

 29 28  0  0  0  0  0  0  0  0999 V2000
    0.5000   -2.0150   -1.2890 C   0  0  0  0  0  0  0  0  0  0  0  0
    0.8190   -1.9280    0.1950 C   0  0  0  0  0  0  0  0  0  0  0  0
    2.0160   -2.7840    0.6140 C   0  0  0  0  0  0  0  0  0  0  0  0
    2.3340   -2.6940    2.1080 C   0  0  0  0  0  0  0  0  0  0  0  0
    3.5370   -3.5670    2.4730 C   0  0  0  0  0  0  0  0  0  0  0  0
    3.8560   -3.4790    3.9660 C   0  0  0  0  0  0  0  0  0  0  0  0
    5.0580   -4.3510    4.3310 C   0  0  0  0  0  0  0  0  0  0  0  0
    5.3770   -4.2630    5.8230 C   0  0  0  0  0  0  0  0  0  0  0  0
    6.5710   -5.1280    6.1910 C   0  0  0  0  0  0  0  0  0  0  0  0
    0.0000    0.0000    0.0000 H   0  0  0  0  0  0  0  0  0  0  0  0
    0.0000    0.0000    0.0000 H   0  0  0  0  0  0  0  0  0  0  0  0
    0.0000    0.0000    0.0000 H   0  0  0  0  0  0  0  0  0  0  0  0
    0.0000    0.0000    0.0000 H   0  0  0  0  0  0  0  0  0  0  0  0
    0.0000    0.0000    0.0000 H   0  0  0  0  0  0  0  0  0  0  0  0
    0.0000    0.0000    0.0000 H   0  0  0  0  0  0  0  0  0  0  0  0
    0.0000    0.0000    0.0000 H   0  0  0  0  0  0  0  0  0  0  0  0
    0.0000    0.0000    0.0000 H   0  0  0  0  0  0  0  0  0  0  0  0
    0.0000    0.0000    0.0000 H   0  0  0  0  0  0  0  0  0  0  0  0
    0.0000    0.0000    0.0000 H   0  0  0  0  0  0  0  0  0  0  0  0
    0.0000    0.0000    0.0000 H   0  0  0  0  0  0  0  0  0  0  0  0
    0.0000    0.0000    0.0000 H   0  0  0  0  0  0  0  0  0  0  0  0
    0.0000    0.0000    0.0000 H   0  0  0  0  0  0  0  0  0  0  0  0
    0.0000    0.0000    0.0000 H   0  0  0  0  0  0  0  0  0  0  0  0
    0.0000    0.0000    0.0000 H   0  0  0  0  0  0  0  0  0  0  0  0
    0.0000    0.0000    0.0000 H   0  0  0  0  0  0  0  0  0  0  0  0
    0.0000    0.0000    0.0000 H   0  0  0  0  0  0  0  0  0  0  0  0
    0.0000    0.0000    0.0000 H   0  0  0  0  0  0  0  0  0  0  0  0
    0.0000    0.0000    0.0000 H   0  0  0  0  0  0  0  0  0  0  0  0
    0.0000    0.0000    0.0000 H   0  0  0  0  0  0  0  0  0  0  0  0
  1  2  1  0
  2  3  1  0
  3  4  1  0
  4  5  1  0
  5  6  1  0
  6  7  1  0
  7  8  1  0
  8  9  1  0
  1 10  1  0
  1 11  1  0
  1 12  1  0
  2 13  1  0
  2 14  1  0
  3 15  1  0
  3 16  1  0
  4 17  1  0
  4 18  1  0
  5 19  1  0
  5 20  1  0
  6 21  1  0
  6 22  1  0
  7 23  1  0
  7 24  1  0
  8 25  1  0
  8 26  1  0
  9 27  1  0
  9 28  1  0
  9 29  1  0
M  END
>  <partial_charges>  (191) 
-0.0923999994993
-0.0800999999046
-0.0793000012636
-0.0782999992371
-0.0789000019431
-0.0782999992371
-0.0793000012636
-0.0800999999046
-0.0923999994993
0.0324999988079
0.0324999988079
0.0324999988079
0.0383000001311
0.0383000001311
0.0390999987721
0.0390999987721
0.0390999987721
0.0390999987721
0.0390000008047
0.0390000008047
0.0390999987721
0.0390999987721
0.0390999987721
0.0390999987721
0.0383000001311
0.0383000001311
0.0324999988079
0.0324999988079
0.0324999988079

>  <partial_bond_orders>  (191) 
1.0
1.0
1.0
1.0
1.0
1.0
1.0
1.0
1.0
1.0
1.0
1.0
1.0
1.0
1.0
1.0
1.0
1.0
1.0
1.0
1.0
1.0
1.0
1.0
1.0
1.0
1.0
1.0

>  <atom_types>  (191) 
c3
c3
c3
c3
c3
c3
c3
c3
c3
hc
hc
hc
hc
hc
hc
hc
hc
hc
hc
hc
hc
hc
hc
hc
hc
hc
hc
hc
hc

>  <target>  (191) 
3.13

>  <cal>  (191) 
3.221

$$$$
mobley_4188615
     RDKit          3D

 22 22  0  0  0  0  0  0  0  0999 V2000
    0.9450   -0.0480   -0.2110 C   0  0  0  0  0  0  0  0  0  0  0  0
    1.3870    0.6310   -1.4210 N   0  0  0  0  0  0  0  0  0  0  0  0
    0.7920    0.1550   -2.6670 C   0  0  0  0  0  0  0  0  0  0  0  0
    2.3230    1.6660   -1.3230 C   0  0  0  0  0  0  0  0  0  0  0  0
    2.8290    2.0740   -0.2780 O   0  0  0  0  0  0  0  0  0  0  0  0
    2.7670    2.3260   -2.5620 C   0  0  0  0  0  0  0  0  0  0  0  0
    3.8750    1.8370   -3.2530 C   0  0  0  0  0  0  0  0  0  0  0  0
    4.2960    2.4630   -4.4270 C   0  0  0  0  0  0  0  0  0  0  0  0
    3.6090    3.5780   -4.9080 C   0  0  0  0  0  0  0  0  0  0  0  0
    2.5010    4.0660   -4.2160 C   0  0  0  0  0  0  0  0  0  0  0  0
    2.0800    3.4400   -3.0430 C   0  0  0  0  0  0  0  0  0  0  0  0
    0.0000    0.0000    0.0000 H   0  0  0  0  0  0  0  0  0  0  0  0
    0.0000    0.0000    0.0000 H   0  0  0  0  0  0  0  0  0  0  0  0
    0.0000    0.0000    0.0000 H   0  0  0  0  0  0  0  0  0  0  0  0
    0.0000    0.0000    0.0000 H   0  0  0  0  0  0  0  0  0  0  0  0
    0.0000    0.0000    0.0000 H   0  0  0  0  0  0  0  0  0  0  0  0
    0.0000    0.0000    0.0000 H   0  0  0  0  0  0  0  0  0  0  0  0
    0.0000    0.0000    0.0000 H   0  0  0  0  0  0  0  0  0  0  0  0
    0.0000    0.0000    0.0000 H   0  0  0  0  0  0  0  0  0  0  0  0
    0.0000    0.0000    0.0000 H   0  0  0  0  0  0  0  0  0  0  0  0
    0.0000    0.0000    0.0000 H   0  0  0  0  0  0  0  0  0  0  0  0
    0.0000    0.0000    0.0000 H   0  0  0  0  0  0  0  0  0  0  0  0
  1  2  1  0
  2  3  1  0
  2  4  1  0
  4  5  2  0
  4  6  1  0
  6 11  2  0
  6  7  1  0
  7  8  2  0
  8  9  1  0
  9 10  2  0
 10 11  1  0
  1 12  1  0
  1 13  1  0
  1 14  1  0
  3 15  1  0
  3 16  1  0
  3 17  1  0
  7 18  1  0
  8 19  1  0
  9 20  1  0
 10 21  1  0
 11 22  1  0
M  END
>  <partial_charges>  (192) 
0.0830999985337
-0.483000010252
0.0830999985337
0.671899974346
-0.591199994087
-0.127900004387
-0.100199997425
-0.132100000978
-0.11779999733
-0.132100000978
-0.100199997425
0.0425999984145
0.0425999984145
0.0425999984145
0.0425999984145
0.0425999984145
0.0425999984145
0.142000004649
0.136500000954
0.134299993515
0.136500000954
0.142000004649

>  <partial_bond_orders>  (192) 
1.0
1.0
1.0
2.0
1.0
2.0
1.0
2.0
1.0
2.0
1.0
1.0
1.0
1.0
1.0
1.0
1.0
1.0
1.0
1.0
1.0
1.0

>  <atom_types>  (192) 
c3
n
c3
c
o
ca
ca
ca
ca
ca
ca
h1
h1
h1
h1
h1
h1
ha
ha
ha
ha
ha

>  <target>  (192) 
-9.29

>  <cal>  (192) 
-8.113

$$$$
mobley_5282042
     RDKit          3D

 44 46  0  0  0  0  0  0  0  0999 V2000
    7.7570    5.1890    1.6880 C   0  0  0  0  0  0  0  0  0  0  0  0
    7.5680    4.2520    0.5810 N   0  0  0  0  0  0  0  0  0  0  0  0
    7.7290    4.9370   -0.7020 C   0  0  0  0  0  0  0  0  0  0  0  0
    6.2720    3.6340    0.6610 C   0  0  0  0  0  0  0  0  0  0  0  0
    6.2000    2.3360   -0.1370 C   0  0  0  0  0  0  0  0  0  0  0  0
    4.8470    1.6880   -0.0540 C   0  0  0  0  0  0  0  0  0  0  0  0
    4.6420    0.3590   -0.1310 C   0  0  0  0  0  0  0  0  0  0  0  0
    5.8490   -0.4920   -0.2020 C   0  0  0  0  0  0  0  0  0  0  0  0
    6.7090   -0.4300   -1.3080 C   0  0  0  0  0  0  0  0  0  0  0  0
    7.8450   -1.2370   -1.3640 C   0  0  0  0  0  0  0  0  0  0  0  0
    8.1280   -2.1130   -0.3200 C   0  0  0  0  0  0  0  0  0  0  0  0
    7.2760   -2.1860    0.7820 C   0  0  0  0  0  0  0  0  0  0  0  0
    6.1310   -1.3790    0.8500 C   0  0  0  0  0  0  0  0  0  0  0  0
    5.2050   -1.4650    2.0370 C   0  0  0  0  0  0  0  0  0  0  0  0
    3.8530   -2.0710    1.6600 C   0  0  0  0  0  0  0  0  0  0  0  0
    2.9080   -1.2750    0.7780 C   0  0  0  0  0  0  0  0  0  0  0  0
    3.2570   -0.1740   -0.0360 C   0  0  0  0  0  0  0  0  0  0  0  0
    2.2590    0.4180   -0.8400 C   0  0  0  0  0  0  0  0  0  0  0  0
    0.9430   -0.0430   -0.8300 C   0  0  0  0  0  0  0  0  0  0  0  0
    0.5970   -1.1180   -0.0270 C   0  0  0  0  0  0  0  0  0  0  0  0
    1.5700   -1.7290    0.7610 C   0  0  0  0  0  0  0  0  0  0  0  0
    0.0000    0.0000    0.0000 H   0  0  0  0  0  0  0  0  0  0  0  0
    0.0000    0.0000    0.0000 H   0  0  0  0  0  0  0  0  0  0  0  0
    0.0000    0.0000    0.0000 H   0  0  0  0  0  0  0  0  0  0  0  0
    0.0000    0.0000    0.0000 H   0  0  0  0  0  0  0  0  0  0  0  0
    0.0000    0.0000    0.0000 H   0  0  0  0  0  0  0  0  0  0  0  0
    0.0000    0.0000    0.0000 H   0  0  0  0  0  0  0  0  0  0  0  0
    0.0000    0.0000    0.0000 H   0  0  0  0  0  0  0  0  0  0  0  0
    0.0000    0.0000    0.0000 H   0  0  0  0  0  0  0  0  0  0  0  0
    0.0000    0.0000    0.0000 H   0  0  0  0  0  0  0  0  0  0  0  0
    0.0000    0.0000    0.0000 H   0  0  0  0  0  0  0  0  0  0  0  0
    0.0000    0.0000    0.0000 H   0  0  0  0  0  0  0  0  0  0  0  0
    0.0000    0.0000    0.0000 H   0  0  0  0  0  0  0  0  0  0  0  0
    0.0000    0.0000    0.0000 H   0  0  0  0  0  0  0  0  0  0  0  0
    0.0000    0.0000    0.0000 H   0  0  0  0  0  0  0  0  0  0  0  0
    0.0000    0.0000    0.0000 H   0  0  0  0  0  0  0  0  0  0  0  0
    0.0000    0.0000    0.0000 H   0  0  0  0  0  0  0  0  0  0  0  0
    0.0000    0.0000    0.0000 H   0  0  0  0  0  0  0  0  0  0  0  0
    0.0000    0.0000    0.0000 H   0  0  0  0  0  0  0  0  0  0  0  0
    0.0000    0.0000    0.0000 H   0  0  0  0  0  0  0  0  0  0  0  0
    0.0000    0.0000    0.0000 H   0  0  0  0  0  0  0  0  0  0  0  0
    0.0000    0.0000    0.0000 H   0  0  0  0  0  0  0  0  0  0  0  0
    0.0000    0.0000    0.0000 H   0  0  0  0  0  0  0  0  0  0  0  0
    0.0000    0.0000    0.0000 H   0  0  0  0  0  0  0  0  0  0  0  0
  1  2  1  0
  2  3  1  0
  2  4  1  0
  4  5  1  0
  5  6  1  0
  6  7  2  0
  7 17  1  0
  7  8  1  0
  8 13  2  0
  8  9  1  0
  9 10  2  0
 10 11  1  0
 11 12  2  0
 12 13  1  0
 13 14  1  0
 14 15  1  0
 15 16  1  0
 16 21  1  0
 16 17  2  0
 17 18  1  0
 18 19  2  0
 19 20  1  0
 20 21  2  0
  1 22  1  0
  1 23  1  0
  1 24  1  0
  3 25  1  0
  3 26  1  0
  3 27  1  0
  4 28  1  0
  4 29  1  0
  5 30  1  0
  5 31  1  0
  6 32  1  0
  9 33  1  0
 10 34  1  0
 11 35  1  0
 12 36  1  0
 14 37  1  0
 14 38  1  0
 15 39  1  0
 15 40  1  0
 18 41  1  0
 19 42  1  0
 20 43  1  0
 21 44  1  0
M  END
>  <partial_charges>  (193) 
0.138500005007
-0.70349997282
0.138500005007
0.156100004911
-0.0581000000238
-0.145999997854
-0.0154999997467
-0.0395999997854
-0.118000000715
-0.134499996901
-0.125200003386
-0.134299993515
-0.0590999983251
-0.0320999994874
-0.0320999994874
-0.0590999983251
-0.0395999997854
-0.118000000715
-0.134499996901
-0.125200003386
-0.134299993515
0.0328000001609
0.0328000001609
0.0328000001609
0.0328000001609
0.0328000001609
0.0328000001609
0.0326999984682
0.0326999984682
0.063299998641
0.063299998641
0.127800002694
0.132400006056
0.131400004029
0.131099998951
0.129600003362
0.0524999983609
0.0524999983609
0.0524999983609
0.0524999983609
0.132400006056
0.131400004029
0.131099998951
0.129600003362

>  <partial_bond_orders>  (193) 
1.0
1.0
1.0
1.0
1.0
2.0
1.0
1.0
2.0
1.0
2.0
1.0
2.0
1.0
1.0
1.0
1.0
2.0
1.0
2.0
1.0
2.0
1.0
1.0
1.0
1.0
1.0
1.0
1.0
1.0
1.0
1.0
1.0
1.0
1.0
1.0
1.0
1.0
1.0
1.0
1.0
1.0
1.0
1.0
1.0
1.0

>  <atom_types>  (193) 
c3
n3
c3
c3
c3
c2
ce
ca
ca
ca
ca
ca
ca
c3
c3
ca
ca
ca
ca
ca
ca
h1
h1
h1
h1
h1
h1
h1
h1
hc
hc
ha
ha
ha
ha
ha
hc
hc
hc
hc
ha
ha
ha
ha

>  <target>  (193) 
-7.43

>  <cal>  (193) 
-7.349

$$$$
mobley_967099
     RDKit          3D

 13 12  0  0  0  0  0  0  0  0999 V2000
   -0.5140   -0.3860    0.8880 C   0  0  0  0  0  0  0  0  0  0  0  0
    0.4300   -0.4780    2.0740 C   0  0  0  0  0  0  0  0  0  0  0  0
    1.0240    0.8720    2.4400 C   0  0  0  0  0  0  0  0  0  0  0  0
    1.5280   -1.3830    1.7190 N   0  0  0  0  0  0  0  0  0  0  0  0
    2.2410   -1.0850    0.7410 O   0  0  0  0  0  0  0  0  0  0  0  0
    1.6760   -2.4120    2.4070 O   0  0  0  0  0  0  0  0  0  0  0  0
    0.0000    0.0000    0.0000 H   0  0  0  0  0  0  0  0  0  0  0  0
    0.0000    0.0000    0.0000 H   0  0  0  0  0  0  0  0  0  0  0  0
    0.0000    0.0000    0.0000 H   0  0  0  0  0  0  0  0  0  0  0  0
    0.0000    0.0000    0.0000 H   0  0  0  0  0  0  0  0  0  0  0  0
    0.0000    0.0000    0.0000 H   0  0  0  0  0  0  0  0  0  0  0  0
    0.0000    0.0000    0.0000 H   0  0  0  0  0  0  0  0  0  0  0  0
    0.0000    0.0000    0.0000 H   0  0  0  0  0  0  0  0  0  0  0  0
  1  2  1  0
  2  3  1  0
  2  4  1  0
  4  5  1  0
  4  6  1  0
  1  7  1  0
  1  8  1  0
  1  9  1  0
  2 10  1  0
  3 11  1  0
  3 12  1  0
  3 13  1  0
M  CHG  2   5  -1   6  -1
M  END
>  <partial_charges>  (194) 
-0.114699997008
-0.0476999990642
-0.114699997008
0.220400005579
-0.212200000882
-0.212200000882
0.0634000003338
0.0634000003338
0.0634000003338
0.100299999118
0.0634000003338
0.0634000003338
0.0634000003338

>  <partial_bond_orders>  (194) 
1.0
1.0
1.0
1.0
1.0
1.0
1.0
1.0
1.0
1.0
1.0
1.0

>  <atom_types>  (194) 
c3
c3
c3
no
o
o
hc
hc
hc
h1
hc
hc
hc

>  <target>  (194) 
-3.13

>  <cal>  (194) 
-1.741

$$$$
mobley_7912193
     RDKit          3D

 28 28  0  0  0  0  0  0  0  0999 V2000
   -2.1220   -2.4490    4.1680 C   0  0  0  0  0  0  0  0  0  0  0  0
   -1.8670   -2.7560    2.7000 C   0  0  0  0  0  0  0  0  0  0  0  0
   -3.1550   -2.6880    1.8840 C   0  0  0  0  0  0  0  0  0  0  0  0
   -2.9050   -2.9950    0.4140 C   0  0  0  0  0  0  0  0  0  0  0  0
   -4.1380   -2.9160   -0.2880 O   0  0  0  0  0  0  0  0  0  0  0  0
   -4.0820   -3.1660   -1.6250 C   0  0  0  0  0  0  0  0  0  0  0  0
   -3.0790   -3.4490   -2.2610 O   0  0  0  0  0  0  0  0  0  0  0  0
   -5.4290   -3.0510   -2.2390 C   0  0  0  0  0  0  0  0  0  0  0  0
   -5.5940   -3.2700   -3.6070 C   0  0  0  0  0  0  0  0  0  0  0  0
   -6.8600   -3.1610   -4.1830 C   0  0  0  0  0  0  0  0  0  0  0  0
   -7.9610   -2.8340   -3.3920 C   0  0  0  0  0  0  0  0  0  0  0  0
   -7.7960   -2.6150   -2.0240 C   0  0  0  0  0  0  0  0  0  0  0  0
   -6.5300   -2.7230   -1.4480 C   0  0  0  0  0  0  0  0  0  0  0  0
   -9.1960   -2.7280   -3.9540 O   0  0  0  0  0  0  0  0  0  0  0  0
    0.0000    0.0000    0.0000 H   0  0  0  0  0  0  0  0  0  0  0  0
    0.0000    0.0000    0.0000 H   0  0  0  0  0  0  0  0  0  0  0  0
    0.0000    0.0000    0.0000 H   0  0  0  0  0  0  0  0  0  0  0  0
    0.0000    0.0000    0.0000 H   0  0  0  0  0  0  0  0  0  0  0  0
    0.0000    0.0000    0.0000 H   0  0  0  0  0  0  0  0  0  0  0  0
    0.0000    0.0000    0.0000 H   0  0  0  0  0  0  0  0  0  0  0  0
    0.0000    0.0000    0.0000 H   0  0  0  0  0  0  0  0  0  0  0  0
    0.0000    0.0000    0.0000 H   0  0  0  0  0  0  0  0  0  0  0  0
    0.0000    0.0000    0.0000 H   0  0  0  0  0  0  0  0  0  0  0  0
    0.0000    0.0000    0.0000 H   0  0  0  0  0  0  0  0  0  0  0  0
    0.0000    0.0000    0.0000 H   0  0  0  0  0  0  0  0  0  0  0  0
    0.0000    0.0000    0.0000 H   0  0  0  0  0  0  0  0  0  0  0  0
    0.0000    0.0000    0.0000 H   0  0  0  0  0  0  0  0  0  0  0  0
    0.0000    0.0000    0.0000 H   0  0  0  0  0  0  0  0  0  0  0  0
  1  2  1  0
  2  3  1  0
  3  4  1  0
  4  5  1  0
  5  6  1  0
  6  7  2  0
  6  8  1  0
  8 13  2  0
  8  9  1  0
  9 10  2  0
 10 11  1  0
 11 12  2  0
 12 13  1  0
 11 14  1  0
  1 15  1  0
  1 16  1  0
  1 17  1  0
  2 18  1  0
  2 19  1  0
  3 20  1  0
  3 21  1  0
  4 22  1  0
  4 23  1  0
  9 24  1  0
 10 25  1  0
 12 26  1  0
 13 27  1  0
 14 28  1  0
M  END
>  <partial_charges>  (195) 
-0.0975999981165
-0.074500001967
-0.106700003147
0.131699994206
-0.436599999666
0.651000022888
-0.528900027275
-0.157399997115
-0.0460000000894
-0.193599998951
0.1481000036
-0.193599998951
-0.0460000000894
-0.49430000782
0.0362000018358
0.0362000018358
0.0362000018358
0.0405000001192
0.0405000001192
0.0531000010669
0.0531000010669
0.0649000033736
0.0649000033736
0.148800000548
0.14849999547
0.14849999547
0.148800000548
0.424400001764

>  <partial_bond_orders>  (195) 
1.0
1.0
1.0
1.0
1.0
2.0
1.0
2.0
1.0
2.0
1.0
2.0
1.0
1.0
1.0
1.0
1.0
1.0
1.0
1.0
1.0
1.0
1.0
1.0
1.0
1.0
1.0
1.0

>  <atom_types>  (195) 
c3
c3
c3
c3
os
c
o
ca
ca
ca
ca
ca
ca
oh
hc
hc
hc
hc
hc
hc
hc
h1
h1
ha
ha
ha
ha
ho

>  <target>  (195) 
-8.72

>  <cal>  (195) 
-8.771

$$$$
mobley_1417007
     RDKit          3D

 24 25  0  0  1  0  0  0  0  0999 V2000
    1.6450    1.4660    0.0460 C   0  0  0  0  0  0  0  0  0  0  0  0
    1.0260    2.6580    0.7410 C   0  0  0  0  0  0  0  0  0  0  0  0
   -0.2590    2.7000    1.1430 C   0  0  0  0  0  0  0  0  0  0  0  0
   -1.2160    1.5360    1.0090 C   0  0  0  0  0  0  0  0  0  0  0  0
   -0.4410    0.2670    0.7040 C   0  0  0  0  0  0  0  0  0  0  0  0
    0.5540    0.5230   -0.4270 C   0  0  0  0  0  0  0  0  0  0  0  0
    0.9080   -0.8800   -0.8480 C   0  0  0  0  0  0  0  0  0  0  0  0
    1.9530   -1.2210   -1.3790 O   0  0  0  0  0  0  0  0  0  0  0  0
   -0.2330   -1.6250   -0.5720 N   0  0  0  0  0  0  0  0  0  0  0  0
   -1.1710   -0.9530    0.2030 C   0  0  0  0  0  0  0  0  0  0  0  0
   -2.3090   -1.2750    0.5030 O   0  0  0  0  0  0  0  0  0  0  0  0
   -0.4580   -3.1980   -1.1260 S   0  0  0  0  0  0  0  0  0  0  0  0
   -1.2770   -2.8730   -2.7210 C   0  0  0  0  0  0  0  0  0  0  0  0
   -1.6260   -4.4410   -3.5200 Cl  0  0  0  0  0  0  0  0  0  0  0  0
   -2.8250   -2.0090   -2.4880 Cl  0  0  0  0  0  0  0  0  0  0  0  0
   -0.2200   -1.9190   -3.8040 Cl  0  0  0  0  0  0  0  0  0  0  0  0
    0.0000    0.0000    0.0000 H   0  0  0  0  0  0  0  0  0  0  0  0
    0.0000    0.0000    0.0000 H   0  0  0  0  0  0  0  0  0  0  0  0
    0.0000    0.0000    0.0000 H   0  0  0  0  0  0  0  0  0  0  0  0
    0.0000    0.0000    0.0000 H   0  0  0  0  0  0  0  0  0  0  0  0
    0.0000    0.0000    0.0000 H   0  0  0  0  0  0  0  0  0  0  0  0
    0.0000    0.0000    0.0000 H   0  0  0  0  0  0  0  0  0  0  0  0
    0.0000    0.0000    0.0000 H   0  0  0  0  0  0  0  0  0  0  0  0
    0.0000    0.0000    0.0000 H   0  0  0  0  0  0  0  0  0  0  0  0
  1  6  1  0
  1  2  1  0
  2  3  2  0
  3  4  1  0
  4  5  1  0
  5 10  1  0
  5  6  1  0
  6  7  1  0
  7  8  2  0
  7  9  1  0
  9 10  1  0
 10 11  2  0
  9 12  1  0
 12 13  1  0
 13 14  1  0
 13 15  1  0
 13 16  1  0
  1 17  1  0
  1 18  1  0
  2 19  1  0
  3 20  1  0
  4 21  1  0
  4 22  1  0
  5 23  1  0
  6 24  1  0
M  END
>  <partial_charges>  (196) 
-0.034200001508
-0.170000001788
-0.170000001788
-0.034200001508
-0.14090000093
0.0987000018358
-0.14090000093
0.0987000018358
0.706399977207
-0.524600028992
-0.467700004578
0.706399977207
-0.524600028992
0.101199999452
0.232500001788
-0.0957999974489
-0.0957999974489
-0.0957999974489
0.0702000036836
0.0702000036836
0.134900003672
0.134900003672
0.0702000036836
0.0702000036836

>  <partial_bond_orders>  (196) 
1.0
1.0
2.0
1.0
1.0
1.0
1.0
1.0
1.0
1.0
2.0
1.0
1.0
2.0
1.0
1.0
1.0
1.0
1.0
1.0
1.0
1.0
1.0
1.0
1.0

>  <atom_types>  (196) 
c3
c2
c2
c3
c3
hc
c3
hc
c
o
n
c
o
ss
c3
cl
cl
cl
hc
hc
ha
ha
hc
hc

>  <target>  (196) 
-9.01

>  <cal>  (196) 
-8.718

$$$$
mobley_9015240
     RDKit          3D

 26 25  0  0  0  0  0  0  0  0999 V2000
    1.9720    0.1930    3.9960 C   0  0  0  0  0  0  0  0  0  0  0  0
    0.7880    0.4660    3.0820 C   0  0  0  0  0  0  0  0  0  0  0  0
    1.0540   -0.0220    1.6580 C   0  0  0  0  0  0  0  0  0  0  0  0
   -0.1390    0.2550    0.7430 C   0  0  0  0  0  0  0  0  0  0  0  0
    0.1270   -0.2330   -0.6820 C   0  0  0  0  0  0  0  0  0  0  0  0
   -1.0660    0.0440   -1.5980 C   0  0  0  0  0  0  0  0  0  0  0  0
   -0.8000   -0.4440   -3.0220 C   0  0  0  0  0  0  0  0  0  0  0  0
   -1.9900   -0.1650   -3.9260 C   0  0  0  0  0  0  0  0  0  0  0  0
   -1.6120   -0.8000   -5.7270 Br  0  0  0  0  0  0  0  0  0  0  0  0
    0.0000    0.0000    0.0000 H   0  0  0  0  0  0  0  0  0  0  0  0
    0.0000    0.0000    0.0000 H   0  0  0  0  0  0  0  0  0  0  0  0
    0.0000    0.0000    0.0000 H   0  0  0  0  0  0  0  0  0  0  0  0
    0.0000    0.0000    0.0000 H   0  0  0  0  0  0  0  0  0  0  0  0
    0.0000    0.0000    0.0000 H   0  0  0  0  0  0  0  0  0  0  0  0
    0.0000    0.0000    0.0000 H   0  0  0  0  0  0  0  0  0  0  0  0
    0.0000    0.0000    0.0000 H   0  0  0  0  0  0  0  0  0  0  0  0
    0.0000    0.0000    0.0000 H   0  0  0  0  0  0  0  0  0  0  0  0
    0.0000    0.0000    0.0000 H   0  0  0  0  0  0  0  0  0  0  0  0
    0.0000    0.0000    0.0000 H   0  0  0  0  0  0  0  0  0  0  0  0
    0.0000    0.0000    0.0000 H   0  0  0  0  0  0  0  0  0  0  0  0
    0.0000    0.0000    0.0000 H   0  0  0  0  0  0  0  0  0  0  0  0
    0.0000    0.0000    0.0000 H   0  0  0  0  0  0  0  0  0  0  0  0
    0.0000    0.0000    0.0000 H   0  0  0  0  0  0  0  0  0  0  0  0
    0.0000    0.0000    0.0000 H   0  0  0  0  0  0  0  0  0  0  0  0
    0.0000    0.0000    0.0000 H   0  0  0  0  0  0  0  0  0  0  0  0
    0.0000    0.0000    0.0000 H   0  0  0  0  0  0  0  0  0  0  0  0
  1  2  1  0
  2  3  1  0
  3  4  1  0
  4  5  1  0
  5  6  1  0
  6  7  1  0
  7  8  1  0
  8  9  1  0
  1 10  1  0
  1 11  1  0
  1 12  1  0
  2 13  1  0
  2 14  1  0
  3 15  1  0
  3 16  1  0
  4 17  1  0
  4 18  1  0
  5 19  1  0
  5 20  1  0
  6 21  1  0
  6 22  1  0
  7 23  1  0
  7 24  1  0
  8 25  1  0
  8 26  1  0
M  END
>  <partial_charges>  (197) 
-0.0921000018716
-0.0799999982119
-0.0785999968648
-0.0778999999166
-0.0771000012755
-0.0785999968648
-0.081200003624
-0.00769999995828
-0.179499998689
0.0335000008345
0.0335000008345
0.0335000008345
0.0381999984384
0.0381999984384
0.0392000004649
0.0392000004649
0.0388999991119
0.0388999991119
0.0414999984205
0.0414999984205
0.0412000007927
0.0412000007927
0.0553999990225
0.0553999990225
0.0718000009656
0.0718000009656

>  <partial_bond_orders>  (197) 
1.0
1.0
1.0
1.0
1.0
1.0
1.0
1.0
1.0
1.0
1.0
1.0
1.0
1.0
1.0
1.0
1.0
1.0
1.0
1.0
1.0
1.0
1.0
1.0
1.0

>  <atom_types>  (197) 
c3
c3
c3
c3
c3
c3
c3
c3
br
hc
hc
hc
hc
hc
hc
hc
hc
hc
hc
hc
hc
hc
hc
hc
h1
h1

>  <target>  (197) 
0.52

>  <cal>  (197) 
1.352

$$$$
mobley_6727159
     RDKit          3D

 12 11  0  0  0  0  0  0  0  0999 V2000
   -2.1460   -0.1940   -0.1210 C   0  0  0  0  0  0  0  0  0  0  0  0
   -0.8940    0.4510    0.4420 C   0  0  0  0  0  0  0  0  0  0  0  0
   -0.8530    0.2360    1.8470 O   0  0  0  0  0  0  0  0  0  0  0  0
    0.2900    0.8040    2.4750 N   0  0  0  0  0  0  0  0  0  0  0  0
    1.0970    1.4030    1.7600 O   0  0  0  0  0  0  0  0  0  0  0  0
    0.3120    0.6120    3.6910 O   0  0  0  0  0  0  0  0  0  0  0  0
   -2.1150   -1.5890    0.1550 O   0  0  0  0  0  0  0  0  0  0  0  0
    0.0000    0.0000    0.0000 H   0  0  0  0  0  0  0  0  0  0  0  0
    0.0000    0.0000    0.0000 H   0  0  0  0  0  0  0  0  0  0  0  0
    0.0000    0.0000    0.0000 H   0  0  0  0  0  0  0  0  0  0  0  0
    0.0000    0.0000    0.0000 H   0  0  0  0  0  0  0  0  0  0  0  0
    0.0000    0.0000    0.0000 H   0  0  0  0  0  0  0  0  0  0  0  0
  1  2  1  0
  2  3  1  0
  3  4  1  0
  4  5  1  0
  4  6  1  0
  1  7  1  0
  1  8  1  0
  1  9  1  0
  2 10  1  0
  2 11  1  0
  7 12  1  0
M  CHG  2   5  -1   6  -1
M  END
>  <partial_charges>  (198) 
0.130500003695
0.113300003111
-0.34810000658
0.377400010824
-0.182400003076
-0.182400003076
-0.592100024223
0.0557000003755
0.0557000003755
0.0793000012636
0.0793000012636
0.413800001144

>  <partial_bond_orders>  (198) 
1.0
1.0
1.0
1.0
1.0
1.0
1.0
1.0
1.0
1.0
1.0

>  <atom_types>  (198) 
c3
c3
os
no
o
o
oh
h1
h1
h1
h1
ho

>  <target>  (198) 
-8.18

>  <cal>  (198) 
-6.676

$$$$
mobley_4059279
     RDKit          3D

 22 22  0  0  0  0  0  0  0  0999 V2000
    1.8320    0.0010    1.9360 C   0  0  0  0  0  0  0  0  0  0  0  0
    1.6130   -1.0120    0.9050 N   0  0  0  0  0  0  0  0  0  0  0  0
    2.8770   -1.6610    0.5350 C   0  0  0  0  0  0  0  0  0  0  0  0
    2.6490   -2.7210   -0.5480 C   0  0  0  0  0  0  0  0  0  0  0  0
    2.0110   -2.1300   -1.7310 N   0  0  0  0  0  0  0  0  0  0  0  0
    0.7470   -1.4820   -1.3610 C   0  0  0  0  0  0  0  0  0  0  0  0
    0.9730   -0.4230   -0.2780 C   0  0  0  0  0  0  0  0  0  0  0  0
    1.7940   -3.1420   -2.7630 C   0  0  0  0  0  0  0  0  0  0  0  0
    0.0000    0.0000    0.0000 H   0  0  0  0  0  0  0  0  0  0  0  0
    0.0000    0.0000    0.0000 H   0  0  0  0  0  0  0  0  0  0  0  0
    0.0000    0.0000    0.0000 H   0  0  0  0  0  0  0  0  0  0  0  0
    0.0000    0.0000    0.0000 H   0  0  0  0  0  0  0  0  0  0  0  0
    0.0000    0.0000    0.0000 H   0  0  0  0  0  0  0  0  0  0  0  0
    0.0000    0.0000    0.0000 H   0  0  0  0  0  0  0  0  0  0  0  0
    0.0000    0.0000    0.0000 H   0  0  0  0  0  0  0  0  0  0  0  0
    0.0000    0.0000    0.0000 H   0  0  0  0  0  0  0  0  0  0  0  0
    0.0000    0.0000    0.0000 H   0  0  0  0  0  0  0  0  0  0  0  0
    0.0000    0.0000    0.0000 H   0  0  0  0  0  0  0  0  0  0  0  0
    0.0000    0.0000    0.0000 H   0  0  0  0  0  0  0  0  0  0  0  0
    0.0000    0.0000    0.0000 H   0  0  0  0  0  0  0  0  0  0  0  0
    0.0000    0.0000    0.0000 H   0  0  0  0  0  0  0  0  0  0  0  0
    0.0000    0.0000    0.0000 H   0  0  0  0  0  0  0  0  0  0  0  0
  1  2  1  0
  2  7  1  0
  2  3  1  0
  3  4  1  0
  4  5  1  0
  5  6  1  0
  6  7  1  0
  5  8  1  0
  1  9  1  0
  1 10  1  0
  1 11  1  0
  3 12  1  0
  3 13  1  0
  4 14  1  0
  4 15  1  0
  6 16  1  0
  6 17  1  0
  7 18  1  0
  7 19  1  0
  8 20  1  0
  8 21  1  0
  8 22  1  0
M  END
>  <partial_charges>  (199) 
0.152799993753
-0.7242000103
0.162799999118
0.162799999118
-0.7242000103
0.162799999118
0.162799999118
0.152799993753
0.0320000015199
0.0320000015199
0.0320000015199
0.0375000014901
0.0375000014901
0.0375000014901
0.0375000014901
0.0375000014901
0.0375000014901
0.0375000014901
0.0375000014901
0.0320000015199
0.0320000015199
0.0320000015199

>  <partial_bond_orders>  (199) 
1.0
1.0
1.0
1.0
1.0
1.0
1.0
1.0
1.0
1.0
1.0
1.0
1.0
1.0
1.0
1.0
1.0
1.0
1.0
1.0
1.0
1.0

>  <atom_types>  (199) 
c3
n3
c3
c3
n3
c3
c3
c3
h1
h1
h1
h1
h1
h1
h1
h1
h1
h1
h1
h1
h1
h1

>  <target>  (199) 
-7.58

>  <cal>  (199) 
-7.874

$$$$
mobley_1396156
     RDKit          3D

 14 14  0  0  0  0  0  0  0  0999 V2000
    1.8850   -1.0360   -0.1120 C   0  0  0  0  0  0  0  0  0  0  0  0
    2.9210   -1.6310    0.6080 C   0  0  0  0  0  0  0  0  0  0  0  0
    2.8780   -1.6520    2.0020 C   0  0  0  0  0  0  0  0  0  0  0  0
    1.8000   -1.0790    2.6760 C   0  0  0  0  0  0  0  0  0  0  0  0
    0.7640   -0.4840    1.9550 C   0  0  0  0  0  0  0  0  0  0  0  0
    0.8070   -0.4630    0.5610 C   0  0  0  0  0  0  0  0  0  0  0  0
   -0.4790    0.2740   -0.3570 Cl  0  0  0  0  0  0  0  0  0  0  0  0
   -0.5850    0.2340    2.7930 Cl  0  0  0  0  0  0  0  0  0  0  0  0
    1.7470   -1.1050    4.4180 Cl  0  0  0  0  0  0  0  0  0  0  0  0
    4.1750   -2.3960    2.8980 Cl  0  0  0  0  0  0  0  0  0  0  0  0
    4.2590   -2.3420   -0.2520 Cl  0  0  0  0  0  0  0  0  0  0  0  0
    1.9280   -1.0150   -1.5410 N   0  0  0  0  0  0  0  0  0  0  0  0
    0.9850   -0.4760   -2.1600 O   0  0  0  0  0  0  0  0  0  0  0  0
    2.9070   -1.5360   -2.1180 O   0  0  0  0  0  0  0  0  0  0  0  0
  1  6  2  0
  1  2  1  0
  2  3  2  0
  3  4  1  0
  4  5  2  0
  5  6  1  0
  6  7  1  0
  5  8  1  0
  4  9  1  0
  3 10  1  0
  2 11  1  0
  1 12  1  0
 12 13  1  0
 12 14  1  0
M  CHG  2  13  -1  14  -1
M  END
>  <partial_charges>  (200) 
-0.154200002551
0.070799998939
0.00730000017211
0.055799998343
0.00730000017211
0.070799998939
-0.00170000002254
-0.0118000004441
-0.00879999995232
-0.0118000004441
-0.00170000002254
0.322800010443
-0.172299996018
-0.172299996018

>  <partial_bond_orders>  (200) 
2.0
1.0
2.0
1.0
2.0
1.0
1.0
1.0
1.0
1.0
1.0
1.0
1.0
1.0

>  <atom_types>  (200) 
ca
ca
ca
ca
ca
ca
cl
cl
cl
cl
cl
no
o
o

>  <target>  (200) 
-5.22

>  <cal>  (200) 
-1.284

$$$$
mobley_3414356
     RDKit          3D

 21 20  0  0  0  0  0  0  0  0999 V2000
    1.0890   -0.1580   -0.5330 C   0  0  0  0  0  0  0  0  0  0  0  0
    0.8600   -1.1430   -1.6700 C   0  0  0  0  0  0  0  0  0  0  0  0
    0.4070   -2.5090   -1.1410 C   0  0  0  0  0  0  0  0  0  0  0  0
    0.1540   -3.5660   -2.2350 C   0  0  0  0  0  0  0  0  0  0  0  0
   -0.2910   -4.8810   -1.5860 C   0  0  0  0  0  0  0  0  0  0  0  0
    1.3840   -3.8070   -3.1120 C   0  0  0  0  0  0  0  0  0  0  0  0
   -0.9130   -3.1050   -3.0680 O   0  0  0  0  0  0  0  0  0  0  0  0
    0.0000    0.0000    0.0000 H   0  0  0  0  0  0  0  0  0  0  0  0
    0.0000    0.0000    0.0000 H   0  0  0  0  0  0  0  0  0  0  0  0
    0.0000    0.0000    0.0000 H   0  0  0  0  0  0  0  0  0  0  0  0
    0.0000    0.0000    0.0000 H   0  0  0  0  0  0  0  0  0  0  0  0
    0.0000    0.0000    0.0000 H   0  0  0  0  0  0  0  0  0  0  0  0
    0.0000    0.0000    0.0000 H   0  0  0  0  0  0  0  0  0  0  0  0
    0.0000    0.0000    0.0000 H   0  0  0  0  0  0  0  0  0  0  0  0
    0.0000    0.0000    0.0000 H   0  0  0  0  0  0  0  0  0  0  0  0
    0.0000    0.0000    0.0000 H   0  0  0  0  0  0  0  0  0  0  0  0
    0.0000    0.0000    0.0000 H   0  0  0  0  0  0  0  0  0  0  0  0
    0.0000    0.0000    0.0000 H   0  0  0  0  0  0  0  0  0  0  0  0
    0.0000    0.0000    0.0000 H   0  0  0  0  0  0  0  0  0  0  0  0
    0.0000    0.0000    0.0000 H   0  0  0  0  0  0  0  0  0  0  0  0
    0.0000    0.0000    0.0000 H   0  0  0  0  0  0  0  0  0  0  0  0
  1  2  1  0
  2  3  1  0
  3  4  1  0
  4  5  1  0
  4  6  1  0
  4  7  1  0
  1  8  1  0
  1  9  1  0
  1 10  1  0
  2 11  1  0
  2 12  1  0
  3 13  1  0
  3 14  1  0
  5 15  1  0
  5 16  1  0
  5 17  1  0
  6 18  1  0
  6 19  1  0
  6 20  1  0
  7 21  1  0
M  END
>  <partial_charges>  (201) 
-0.0922000035644
-0.0788000002503
-0.0630000010133
0.148699998856
-0.123999997973
-0.123999997973
-0.596700012684
0.0318000018597
0.0318000018597
0.0318000018597
0.0471000000834
0.0471000000834
0.0461000017822
0.0461000017822
0.0419000014663
0.0419000014663
0.0419000014663
0.0419000014663
0.0419000014663
0.0419000014663
0.396499991417

>  <partial_bond_orders>  (201) 
1.0
1.0
1.0
1.0
1.0
1.0
1.0
1.0
1.0
1.0
1.0
1.0
1.0
1.0
1.0
1.0
1.0
1.0
1.0
1.0

>  <atom_types>  (201) 
c3
c3
c3
c3
c3
c3
oh
hc
hc
hc
hc
hc
hc
hc
hc
hc
hc
hc
hc
hc
ho

>  <target>  (201) 
-3.92

>  <cal>  (201) 
-2.779

$$$$
mobley_1328936
     RDKit          3D

 20 20  0  0  0  0  0  0  0  0999 V2000
    0.5850   -1.0140   -3.5070 C   0  0  0  0  0  0  0  0  0  0  0  0
    0.6730   -1.0320   -2.0780 O   0  0  0  0  0  0  0  0  0  0  0  0
    1.9300   -1.0150   -1.5660 C   0  0  0  0  0  0  0  0  0  0  0  0
    2.9710   -0.9860   -2.2040 O   0  0  0  0  0  0  0  0  0  0  0  0
    1.8850   -1.0360   -0.1120 C   0  0  0  0  0  0  0  0  0  0  0  0
    2.9210   -1.6310    0.6080 C   0  0  0  0  0  0  0  0  0  0  0  0
    2.8780   -1.6520    2.0020 C   0  0  0  0  0  0  0  0  0  0  0  0
    1.8000   -1.0790    2.6760 C   0  0  0  0  0  0  0  0  0  0  0  0
    0.7640   -0.4840    1.9550 C   0  0  0  0  0  0  0  0  0  0  0  0
    0.8070   -0.4630    0.5610 C   0  0  0  0  0  0  0  0  0  0  0  0
    1.7570   -1.1000    4.0950 N   0  0  0  0  0  0  0  0  0  0  0  0
    0.7770   -0.5790    4.6810 O   0  0  0  0  0  0  0  0  0  0  0  0
    2.6990   -1.6390    4.7240 O   0  0  0  0  0  0  0  0  0  0  0  0
    0.0000    0.0000    0.0000 H   0  0  0  0  0  0  0  0  0  0  0  0
    0.0000    0.0000    0.0000 H   0  0  0  0  0  0  0  0  0  0  0  0
    0.0000    0.0000    0.0000 H   0  0  0  0  0  0  0  0  0  0  0  0
    0.0000    0.0000    0.0000 H   0  0  0  0  0  0  0  0  0  0  0  0
    0.0000    0.0000    0.0000 H   0  0  0  0  0  0  0  0  0  0  0  0
    0.0000    0.0000    0.0000 H   0  0  0  0  0  0  0  0  0  0  0  0
    0.0000    0.0000    0.0000 H   0  0  0  0  0  0  0  0  0  0  0  0
  1  2  1  0
  2  3  1  0
  3  4  2  0
  3  5  1  0
  5 10  2  0
  5  6  1  0
  6  7  2  0
  7  8  1  0
  8  9  2  0
  9 10  1  0
  8 11  1  0
 11 12  1  0
 11 13  1  0
  1 14  1  0
  1 15  1  0
  1 16  1  0
  6 17  1  0
  7 18  1  0
  9 19  1  0
 10 20  1  0
M  CHG  2  12  -1  13  -1
M  END
>  <partial_charges>  (202) 
0.122699998319
-0.43410000205
0.637799978256
-0.517499983311
-0.0900999978185
-0.0859000012279
-0.0826999992132
-0.149599999189
-0.0826999992132
-0.0859000012279
0.309300005436
-0.200800001621
-0.200800001621
0.054699998349
0.054699998349
0.054699998349
0.169799998403
0.178200006485
0.178200006485
0.169799998403

>  <partial_bond_orders>  (202) 
1.0
1.0
2.0
1.0
2.0
1.0
2.0
1.0
2.0
1.0
1.0
1.0
1.0
1.0
1.0
1.0
1.0
1.0
1.0
1.0

>  <atom_types>  (202) 
c3
os
c
o
ca
ca
ca
ca
ca
ca
no
o
o
h1
h1
h1
ha
ha
ha
ha

>  <target>  (202) 
-6.88

>  <cal>  (202) 
-6.588

$$$$
mobley_3274817
     RDKit          3D

 29 29  0  0  1  0  0  0  0  0999 V2000
   -0.1700    3.0590    2.3980 C   0  0  0  0  0  0  0  0  0  0  0  0
    0.0340    1.6080    1.9790 C   0  0  0  0  0  0  0  0  0  0  0  0
   -0.9890    0.6450    2.6150 C   0  0  0  0  0  0  0  0  0  0  0  0
   -0.7900   -0.7770    2.0760 C   0  0  0  0  0  0  0  0  0  0  0  0
   -0.9440    0.6410    4.1340 C   0  0  0  0  0  0  0  0  0  0  0  0
    0.2380    0.2780    4.7790 C   0  0  0  0  0  0  0  0  0  0  0  0
    0.2990    0.2710    6.1720 C   0  0  0  0  0  0  0  0  0  0  0  0
   -0.8240    0.6260    6.9210 C   0  0  0  0  0  0  0  0  0  0  0  0
   -2.0060    0.9880    6.2760 C   0  0  0  0  0  0  0  0  0  0  0  0
   -2.0660    0.9960    4.8820 C   0  0  0  0  0  0  0  0  0  0  0  0
   -3.2190    1.3520    4.2440 O   0  0  0  0  0  0  0  0  0  0  0  0
   -3.1400    1.3470    7.0560 N   0  0  0  0  0  0  0  0  0  0  0  0
   -3.9490    0.4520    7.3970 O   0  0  0  0  0  0  0  0  0  0  0  0
   -3.2960    2.5480    7.3810 O   0  0  0  0  0  0  0  0  0  0  0  0
    1.5020   -0.1010    6.8290 N   0  0  0  0  0  0  0  0  0  0  0  0
    1.5340   -0.1020    8.0830 O   0  0  0  0  0  0  0  0  0  0  0  0
    2.4990   -0.4190    6.1370 O   0  0  0  0  0  0  0  0  0  0  0  0
    0.0000    0.0000    0.0000 H   0  0  0  0  0  0  0  0  0  0  0  0
    0.0000    0.0000    0.0000 H   0  0  0  0  0  0  0  0  0  0  0  0
    0.0000    0.0000    0.0000 H   0  0  0  0  0  0  0  0  0  0  0  0
    0.0000    0.0000    0.0000 H   0  0  0  0  0  0  0  0  0  0  0  0
    0.0000    0.0000    0.0000 H   0  0  0  0  0  0  0  0  0  0  0  0
    0.0000    0.0000    0.0000 H   0  0  0  0  0  0  0  0  0  0  0  0
    0.0000    0.0000    0.0000 H   0  0  0  0  0  0  0  0  0  0  0  0
    0.0000    0.0000    0.0000 H   0  0  0  0  0  0  0  0  0  0  0  0
    0.0000    0.0000    0.0000 H   0  0  0  0  0  0  0  0  0  0  0  0
    0.0000    0.0000    0.0000 H   0  0  0  0  0  0  0  0  0  0  0  0
    0.0000    0.0000    0.0000 H   0  0  0  0  0  0  0  0  0  0  0  0
    0.0000    0.0000    0.0000 H   0  0  0  0  0  0  0  0  0  0  0  0
  1  2  1  0
  2  3  1  0
  3  4  1  0
  3  5  1  0
  5 10  2  0
  5  6  1  0
  6  7  2  0
  7  8  1  0
  8  9  2  0
  9 10  1  0
 10 11  1  0
  9 12  1  0
 12 13  1  0
 12 14  1  0
  7 15  1  0
 15 16  1  0
 15 17  1  0
  1 18  1  0
  1 19  1  0
  1 20  1  0
  2 21  1  0
  2 22  1  0
  3 23  1  0
  4 24  1  0
  4 25  1  0
  4 26  1  0
  6 27  1  0
  8 28  1  0
 11 29  1  0
M  CHG  4  13  -1  14  -1  16  -1  17  -1
M  END
>  <partial_charges>  (203) 
-0.0957999974489
-0.0746999979019
-0.0245999991894
0.0803000032902
-0.0935000032187
-0.0926999971271
-0.0185000002384
-0.210400000215
0.00359999993816
-0.253199994564
0.219799995422
-0.4674000144
0.302599996328
-0.178700000048
-0.178700000048
0.321999996901
-0.199300006032
-0.199300006032
0.0381999984384
0.0381999984384
0.0381999984384
0.0461999997497
0.0461999997497
0.0428000018001
0.0428000018001
0.0428000018001
0.185800001025
0.193299993873
0.444099992514

>  <partial_bond_orders>  (203) 
1.0
1.0
1.0
1.0
1.0
2.0
1.0
2.0
1.0
2.0
1.0
1.0
1.0
1.0
1.0
1.0
1.0
1.0
1.0
1.0
1.0
1.0
1.0
1.0
1.0
1.0
1.0
1.0
1.0

>  <atom_types>  (203) 
c3
c3
c3
hc
c3
ca
ca
ca
ca
ca
ca
oh
no
o
o
no
o
o
hc
hc
hc
hc
hc
hc
hc
hc
ha
ha
ho

>  <target>  (203) 
-6.23

>  <cal>  (203) 
-5.378

$$$$
mobley_7794077
     RDKit          3D

 15 15  0  0  0  0  0  0  0  0999 V2000
    1.1620    1.5070    2.5830 C   0  0  0  0  0  0  0  0  0  0  0  0
    0.7830    0.3890    1.9520 C   0  0  0  0  0  0  0  0  0  0  0  0
    1.5360   -0.8690    2.2310 C   0  0  0  0  0  0  0  0  0  0  0  0
    1.2390   -1.9280    1.6860 O   0  0  0  0  0  0  0  0  0  0  0  0
    2.5780   -0.7390    3.1410 N   0  0  0  0  0  0  0  0  0  0  0  0
    2.9650    0.4330    3.7940 C   0  0  0  0  0  0  0  0  0  0  0  0
    3.9020    0.4730    4.5910 O   0  0  0  0  0  0  0  0  0  0  0  0
    2.2040    1.5450    3.4680 N   0  0  0  0  0  0  0  0  0  0  0  0
   -0.3530    0.3290    0.9820 C   0  0  0  0  0  0  0  0  0  0  0  0
   -0.9310    1.5400    0.8360 F   0  0  0  0  0  0  0  0  0  0  0  0
    0.0670   -0.0760   -0.2350 F   0  0  0  0  0  0  0  0  0  0  0  0
   -1.3050   -0.5340    1.3960 F   0  0  0  0  0  0  0  0  0  0  0  0
    0.0000    0.0000    0.0000 H   0  0  0  0  0  0  0  0  0  0  0  0
    0.0000    0.0000    0.0000 H   0  0  0  0  0  0  0  0  0  0  0  0
    0.0000    0.0000    0.0000 H   0  0  0  0  0  0  0  0  0  0  0  0
  1  8  1  0
  1  2  2  0
  2  3  1  0
  3  4  2  0
  3  5  1  0
  5  6  1  0
  6  7  2  0
  6  8  1  0
  2  9  1  0
  9 10  1  0
  9 11  1  0
  9 12  1  0
  1 13  1  0
  5 14  1  0
  8 15  1  0
M  END
>  <partial_charges>  (204) 
0.117899999022
-0.367399990559
0.732100009918
-0.575200021267
-0.584299981594
0.805000007153
-0.612900018692
-0.459500014782
0.725099980831
-0.229200005531
-0.229200005531
-0.229200005531
0.179399996996
0.362199991941
0.365299999714

>  <partial_bond_orders>  (204) 
1.0
2.0
1.0
2.0
1.0
1.0
2.0
1.0
1.0
1.0
1.0
1.0
1.0
1.0
1.0

>  <atom_types>  (204) 
cc
cd
c
o
n
c
o
n
c3
f
f
f
h4
hn
hn

>  <target>  (204) 
-15.46

>  <cal>  (204) 
-17.349

$$$$
mobley_994483
     RDKit          3D

  8  7  0  0  0  0  0  0  0  0999 V2000
    0.0130   -0.7250    0.8210 C   0  0  0  0  0  0  0  0  0  0  0  0
    1.1400   -0.4430    1.7860 C   0  0  0  0  0  0  0  0  0  0  0  0
    2.8460   -0.5450    0.8590 Br  0  0  0  0  0  0  0  0  0  0  0  0
    0.0000    0.0000    0.0000 H   0  0  0  0  0  0  0  0  0  0  0  0
    0.0000    0.0000    0.0000 H   0  0  0  0  0  0  0  0  0  0  0  0
    0.0000    0.0000    0.0000 H   0  0  0  0  0  0  0  0  0  0  0  0
    0.0000    0.0000    0.0000 H   0  0  0  0  0  0  0  0  0  0  0  0
    0.0000    0.0000    0.0000 H   0  0  0  0  0  0  0  0  0  0  0  0
  1  2  1  0
  2  3  1  0
  1  4  1  0
  1  5  1  0
  1  6  1  0
  2  7  1  0
  2  8  1  0
M  END
>  <partial_charges>  (205) 
-0.0961000025272
-0.00769999995828
-0.183799996972
0.0483999997377
0.0483999997377
0.0483999997377
0.0711999982595
0.0711999982595

>  <partial_bond_orders>  (205) 
1.0
1.0
1.0
1.0
1.0
1.0
1.0

>  <atom_types>  (205) 
c3
c3
br
hc
hc
hc
h1
h1

>  <target>  (205) 
-0.74

>  <cal>  (205) 
0.487

$$$$
mobley_6353617
     RDKit          3D

 16 16  0  0  0  0  0  0  0  0999 V2000
    3.4280   -1.3160    4.5410 C   0  0  0  0  0  0  0  0  0  0  0  0
    2.8570   -0.2750    3.6320 C   0  0  0  0  0  0  0  0  0  0  0  0
    3.4280    0.8080    3.5570 O   0  0  0  0  0  0  0  0  0  0  0  0
    1.6520   -0.6230    2.9000 C   0  0  0  0  0  0  0  0  0  0  0  0
    1.3880   -0.0680    1.6520 C   0  0  0  0  0  0  0  0  0  0  0  0
    0.2270   -0.4200    0.9730 C   0  0  0  0  0  0  0  0  0  0  0  0
   -0.6320   -1.3220    1.5800 C   0  0  0  0  0  0  0  0  0  0  0  0
   -0.4090   -1.8820    2.7910 N   0  0  0  0  0  0  0  0  0  0  0  0
    0.7300   -1.5160    3.4210 C   0  0  0  0  0  0  0  0  0  0  0  0
    0.0000    0.0000    0.0000 H   0  0  0  0  0  0  0  0  0  0  0  0
    0.0000    0.0000    0.0000 H   0  0  0  0  0  0  0  0  0  0  0  0
    0.0000    0.0000    0.0000 H   0  0  0  0  0  0  0  0  0  0  0  0
    0.0000    0.0000    0.0000 H   0  0  0  0  0  0  0  0  0  0  0  0
    0.0000    0.0000    0.0000 H   0  0  0  0  0  0  0  0  0  0  0  0
    0.0000    0.0000    0.0000 H   0  0  0  0  0  0  0  0  0  0  0  0
    0.0000    0.0000    0.0000 H   0  0  0  0  0  0  0  0  0  0  0  0
  1  2  1  0
  2  3  2  0
  2  4  1  0
  4  9  2  0
  4  5  1  0
  5  6  2  0
  6  7  1  0
  7  8  2  0
  8  9  1  0
  1 10  1  0
  1 11  1  0
  1 12  1  0
  5 13  1  0
  6 14  1  0
  7 15  1  0
  9 16  1  0
M  END
>  <partial_charges>  (206) 
-0.198200002313
0.581200003624
-0.528999984264
-0.291000008583
-0.0419999994338
-0.256500005722
0.415600001812
-0.670700013638
0.429100006819
0.0672999992967
0.0672999992967
0.0672999992967
0.158600002527
0.149599999189
0.0262000001967
0.0252000000328

>  <partial_bond_orders>  (206) 
1.0
2.0
1.0
2.0
1.0
2.0
1.0
2.0
1.0
1.0
1.0
1.0
1.0
1.0
1.0
1.0

>  <atom_types>  (206) 
c3
c
o
ca
ca
ca
ca
nb
ca
hc
hc
hc
ha
ha
h4
h4

>  <target>  (206) 
-8.26

>  <cal>  (206) 
-7.844

$$$$
mobley_2008055
     RDKit          3D

  8  7  0  0  0  0  0  0  0  0999 V2000
    0.8150   -0.5380    0.4930 C   0  0  0  0  0  0  0  0  0  0  0  0
    2.1550   -0.0520   -0.0120 C   0  0  0  0  0  0  0  0  0  0  0  0
    0.0000    0.0000    0.0000 H   0  0  0  0  0  0  0  0  0  0  0  0
    0.0000    0.0000    0.0000 H   0  0  0  0  0  0  0  0  0  0  0  0
    0.0000    0.0000    0.0000 H   0  0  0  0  0  0  0  0  0  0  0  0
    0.0000    0.0000    0.0000 H   0  0  0  0  0  0  0  0  0  0  0  0
    0.0000    0.0000    0.0000 H   0  0  0  0  0  0  0  0  0  0  0  0
    0.0000    0.0000    0.0000 H   0  0  0  0  0  0  0  0  0  0  0  0
  1  2  1  0
  1  3  1  0
  1  4  1  0
  1  5  1  0
  2  6  1  0
  2  7  1  0
  2  8  1  0
M  END
>  <partial_charges>  (207) 
-0.0938000008464
-0.0938000008464
0.0313000008464
0.0313000008464
0.0313000008464
0.0313000008464
0.0313000008464
0.0313000008464

>  <partial_bond_orders>  (207) 
1.0
1.0
1.0
1.0
1.0
1.0
1.0

>  <atom_types>  (207) 
c3
c3
hc
hc
hc
hc
hc
hc

>  <target>  (207) 
1.83

>  <cal>  (207) 
2.465

$$$$
mobley_4434915
     RDKit          3D

  5  4  0  0  0  0  0  0  0  0999 V2000
   -0.1150   -0.0080   -0.0770 C   0  0  0  0  0  0  0  0  0  0  0  0
    1.3490    0.0980    0.9060 Cl  0  0  0  0  0  0  0  0  0  0  0  0
    0.0000    0.0000    0.0000 H   0  0  0  0  0  0  0  0  0  0  0  0
    0.0000    0.0000    0.0000 H   0  0  0  0  0  0  0  0  0  0  0  0
    0.0000    0.0000    0.0000 H   0  0  0  0  0  0  0  0  0  0  0  0
  1  2  1  0
  1  3  1  0
  1  4  1  0
  1  5  1  0
M  END
>  <partial_charges>  (208) 
0.0137000000104
-0.188999995589
0.0584000013769
0.0584000013769
0.0584000013769

>  <partial_bond_orders>  (208) 
1.0
1.0
1.0
1.0

>  <atom_types>  (208) 
c3
cl
h1
h1
h1

>  <target>  (208) 
-0.55

>  <cal>  (208) 
0.764

$$$$
mobley_4177472
     RDKit          3D

 26 25  0  0  0  0  0  0  0  0999 V2000
    0.6740    0.4760   -2.5260 C   0  0  0  0  0  0  0  0  0  0  0  0
   -0.2310    0.0750   -1.3520 C   0  0  0  0  0  0  0  0  0  0  0  0
   -1.5380    0.8710   -1.4600 C   0  0  0  0  0  0  0  0  0  0  0  0
    0.4790    0.2690    0.0290 C   0  0  0  0  0  0  0  0  0  0  0  0
    1.7540   -0.5900    0.1140 C   0  0  0  0  0  0  0  0  0  0  0  0
   -0.4630    0.0370    1.2530 C   0  0  0  0  0  0  0  0  0  0  0  0
   -1.0640   -1.3710    1.3110 C   0  0  0  0  0  0  0  0  0  0  0  0
    0.2250    0.3550    2.5870 C   0  0  0  0  0  0  0  0  0  0  0  0
    0.0000    0.0000    0.0000 H   0  0  0  0  0  0  0  0  0  0  0  0
    0.0000    0.0000    0.0000 H   0  0  0  0  0  0  0  0  0  0  0  0
    0.0000    0.0000    0.0000 H   0  0  0  0  0  0  0  0  0  0  0  0
    0.0000    0.0000    0.0000 H   0  0  0  0  0  0  0  0  0  0  0  0
    0.0000    0.0000    0.0000 H   0  0  0  0  0  0  0  0  0  0  0  0
    0.0000    0.0000    0.0000 H   0  0  0  0  0  0  0  0  0  0  0  0
    0.0000    0.0000    0.0000 H   0  0  0  0  0  0  0  0  0  0  0  0
    0.0000    0.0000    0.0000 H   0  0  0  0  0  0  0  0  0  0  0  0
    0.0000    0.0000    0.0000 H   0  0  0  0  0  0  0  0  0  0  0  0
    0.0000    0.0000    0.0000 H   0  0  0  0  0  0  0  0  0  0  0  0
    0.0000    0.0000    0.0000 H   0  0  0  0  0  0  0  0  0  0  0  0
    0.0000    0.0000    0.0000 H   0  0  0  0  0  0  0  0  0  0  0  0
    0.0000    0.0000    0.0000 H   0  0  0  0  0  0  0  0  0  0  0  0
    0.0000    0.0000    0.0000 H   0  0  0  0  0  0  0  0  0  0  0  0
    0.0000    0.0000    0.0000 H   0  0  0  0  0  0  0  0  0  0  0  0
    0.0000    0.0000    0.0000 H   0  0  0  0  0  0  0  0  0  0  0  0
    0.0000    0.0000    0.0000 H   0  0  0  0  0  0  0  0  0  0  0  0
    0.0000    0.0000    0.0000 H   0  0  0  0  0  0  0  0  0  0  0  0
  1  2  1  0
  2  3  1  0
  2  4  1  0
  4  5  1  0
  4  6  1  0
  6  7  1  0
  6  8  1  0
  1  9  1  0
  1 10  1  0
  1 11  1  0
  2 12  1  0
  3 13  1  0
  3 14  1  0
  3 15  1  0
  4 16  1  0
  5 17  1  0
  5 18  1  0
  5 19  1  0
  6 20  1  0
  7 21  1  0
  7 22  1  0
  7 23  1  0
  8 24  1  0
  8 25  1  0
  8 26  1  0
M  END
>  <partial_charges>  (209) 
-0.090300001204
-0.0644000023603
-0.090300001204
-0.0537000000477
-0.0917000025511
-0.0644000023603
-0.090300001204
-0.090300001204
0.033100001514
0.033100001514
0.033100001514
0.0461000017822
0.033100001514
0.033100001514
0.033100001514
0.0443999990821
0.0340999998152
0.0340999998152
0.0340999998152
0.0461000017822
0.033100001514
0.033100001514
0.033100001514
0.033100001514
0.033100001514
0.033100001514

>  <partial_bond_orders>  (209) 
1.0
1.0
1.0
1.0
1.0
1.0
1.0
1.0
1.0
1.0
1.0
1.0
1.0
1.0
1.0
1.0
1.0
1.0
1.0
1.0
1.0
1.0
1.0
1.0
1.0

>  <atom_types>  (209) 
c3
c3
c3
c3
c3
c3
c3
c3
hc
hc
hc
hc
hc
hc
hc
hc
hc
hc
hc
hc
hc
hc
hc
hc
hc
hc

>  <target>  (209) 
2.56

>  <cal>  (209) 
2.674

$$$$
mobley_1873346
     RDKit          3D

 15 15  0  0  0  0  0  0  0  0999 V2000
    1.9310   -1.0140   -1.6030 C   0  0  0  0  0  0  0  0  0  0  0  0
    1.8850   -1.0360   -0.1120 C   0  0  0  0  0  0  0  0  0  0  0  0
    2.9210   -1.6310    0.6080 C   0  0  0  0  0  0  0  0  0  0  0  0
    2.8780   -1.6520    2.0020 C   0  0  0  0  0  0  0  0  0  0  0  0
    1.8000   -1.0790    2.6760 C   0  0  0  0  0  0  0  0  0  0  0  0
    0.7640   -0.4840    1.9550 C   0  0  0  0  0  0  0  0  0  0  0  0
    0.8070   -0.4630    0.5610 C   0  0  0  0  0  0  0  0  0  0  0  0
    0.0000    0.0000    0.0000 H   0  0  0  0  0  0  0  0  0  0  0  0
    0.0000    0.0000    0.0000 H   0  0  0  0  0  0  0  0  0  0  0  0
    0.0000    0.0000    0.0000 H   0  0  0  0  0  0  0  0  0  0  0  0
    0.0000    0.0000    0.0000 H   0  0  0  0  0  0  0  0  0  0  0  0
    0.0000    0.0000    0.0000 H   0  0  0  0  0  0  0  0  0  0  0  0
    0.0000    0.0000    0.0000 H   0  0  0  0  0  0  0  0  0  0  0  0
    0.0000    0.0000    0.0000 H   0  0  0  0  0  0  0  0  0  0  0  0
    0.0000    0.0000    0.0000 H   0  0  0  0  0  0  0  0  0  0  0  0
  1  2  1  0
  2  7  2  0
  2  3  1  0
  3  4  2  0
  4  5  1  0
  5  6  2  0
  6  7  1  0
  1  8  1  0
  1  9  1  0
  1 10  1  0
  3 11  1  0
  4 12  1  0
  5 13  1  0
  6 14  1  0
  7 15  1  0
M  END
>  <partial_charges>  (210) 
-0.0538999997079
-0.0771000012755
-0.130500003695
-0.126800000668
-0.135000005364
-0.126800000668
-0.130500003695
0.0436000004411
0.0436000004411
0.0436000004411
0.130199998617
0.129800006747
0.129800006747
0.129800006747
0.130199998617

>  <partial_bond_orders>  (210) 
1.0
2.0
1.0
2.0
1.0
2.0
1.0
1.0
1.0
1.0
1.0
1.0
1.0
1.0
1.0

>  <atom_types>  (210) 
c3
ca
ca
ca
ca
ca
ca
hc
hc
hc
ha
ha
ha
ha
ha

>  <target>  (210) 
-0.9

>  <cal>  (210) 
-0.79

$$$$
mobley_5917842
     RDKit          3D

 20 20  0  0  0  0  0  0  0  0999 V2000
    1.9310   -1.0160   -1.6030 C   0  0  0  0  0  0  0  0  0  0  0  0
    1.8850   -1.0360   -0.1120 C   0  0  0  0  0  0  0  0  0  0  0  0
    2.9210   -1.6310    0.6080 C   0  0  0  0  0  0  0  0  0  0  0  0
    2.8780   -1.6520    2.0020 C   0  0  0  0  0  0  0  0  0  0  0  0
    1.8000   -1.0790    2.6760 C   0  0  0  0  0  0  0  0  0  0  0  0
    0.7640   -0.4840    1.9550 C   0  0  0  0  0  0  0  0  0  0  0  0
    0.8070   -0.4630    0.5610 C   0  0  0  0  0  0  0  0  0  0  0  0
   -0.2940    0.0800    2.6010 O   0  0  0  0  0  0  0  0  0  0  0  0
   -1.3110    0.6660    1.7910 C   0  0  0  0  0  0  0  0  0  0  0  0
    1.7690   -1.1060    4.0370 O   0  0  0  0  0  0  0  0  0  0  0  0
    0.0000    0.0000    0.0000 H   0  0  0  0  0  0  0  0  0  0  0  0
    0.0000    0.0000    0.0000 H   0  0  0  0  0  0  0  0  0  0  0  0
    0.0000    0.0000    0.0000 H   0  0  0  0  0  0  0  0  0  0  0  0
    0.0000    0.0000    0.0000 H   0  0  0  0  0  0  0  0  0  0  0  0
    0.0000    0.0000    0.0000 H   0  0  0  0  0  0  0  0  0  0  0  0
    0.0000    0.0000    0.0000 H   0  0  0  0  0  0  0  0  0  0  0  0
    0.0000    0.0000    0.0000 H   0  0  0  0  0  0  0  0  0  0  0  0
    0.0000    0.0000    0.0000 H   0  0  0  0  0  0  0  0  0  0  0  0
    0.0000    0.0000    0.0000 H   0  0  0  0  0  0  0  0  0  0  0  0
    0.0000    0.0000    0.0000 H   0  0  0  0  0  0  0  0  0  0  0  0
  1  2  1  0
  2  7  2  0
  2  3  1  0
  3  4  2  0
  4  5  1  0
  5  6  2  0
  6  7  1  0
  6  8  1  0
  8  9  1  0
  5 10  1  0
  1 11  1  0
  1 12  1  0
  1 13  1  0
  3 14  1  0
  4 15  1  0
  7 16  1  0
  9 17  1  0
  9 18  1  0
  9 19  1  0
 10 20  1  0
M  END
>  <partial_charges>  (211) 
-0.0513999983668
-0.0806000009179
-0.125200003386
-0.132899999619
0.106100000441
0.0465000011027
-0.164599999785
-0.348399996758
0.121799997985
-0.497099995613
0.043299999088
0.043299999088
0.043299999088
0.135900005698
0.152300000191
0.138300001621
0.0450000017881
0.0450000017881
0.0450000017881
0.434399992228

>  <partial_bond_orders>  (211) 
1.0
2.0
1.0
2.0
1.0
2.0
1.0
1.0
1.0
1.0
1.0
1.0
1.0
1.0
1.0
1.0
1.0
1.0
1.0
1.0

>  <atom_types>  (211) 
c3
ca
ca
ca
ca
ca
ca
os
c3
oh
hc
hc
hc
ha
ha
ha
h1
h1
h1
ho

>  <target>  (211) 
-5.8

>  <cal>  (211) 
-4.547

$$$$
mobley_7768165
     RDKit          3D

  8  7  0  0  0  0  0  0  0  0999 V2000
    0.2950   -0.5820    0.3980 C   0  0  0  0  0  0  0  0  0  0  0  0
   -0.2990    0.5940   -0.3440 C   0  0  0  0  0  0  0  0  0  0  0  0
   -0.2000    0.2720   -2.2610 Br  0  0  0  0  0  0  0  0  0  0  0  0
    0.2120   -0.3040    2.1520 Cl  0  0  0  0  0  0  0  0  0  0  0  0
    0.0000    0.0000    0.0000 H   0  0  0  0  0  0  0  0  0  0  0  0
    0.0000    0.0000    0.0000 H   0  0  0  0  0  0  0  0  0  0  0  0
    0.0000    0.0000    0.0000 H   0  0  0  0  0  0  0  0  0  0  0  0
    0.0000    0.0000    0.0000 H   0  0  0  0  0  0  0  0  0  0  0  0
  1  2  1  0
  2  3  1  0
  1  4  1  0
  1  5  1  0
  1  6  1  0
  2  7  1  0
  2  8  1  0
M  END
>  <partial_charges>  (212) 
0.034200001508
-0.0274000000209
-0.159500002861
-0.184699997306
0.0803000032902
0.0803000032902
0.0883999988437
0.0883999988437

>  <partial_bond_orders>  (212) 
1.0
1.0
1.0
1.0
1.0
1.0
1.0

>  <atom_types>  (212) 
c3
c3
br
cl
h1
h1
h1
h1

>  <target>  (212) 
-1.95

>  <cal>  (212) 
-0.8

$$$$
mobley_2751110
     RDKit          3D

 15 15  0  0  0  0  0  0  0  0999 V2000
    1.8850   -1.0360   -0.1120 C   0  0  0  0  0  0  0  0  0  0  0  0
    2.9210   -1.6310    0.6080 C   0  0  0  0  0  0  0  0  0  0  0  0
    2.8780   -1.6520    2.0020 C   0  0  0  0  0  0  0  0  0  0  0  0
    1.8000   -1.0790    2.6760 C   0  0  0  0  0  0  0  0  0  0  0  0
    0.7640   -0.4840    1.9550 C   0  0  0  0  0  0  0  0  0  0  0  0
    0.8070   -0.4630    0.5610 C   0  0  0  0  0  0  0  0  0  0  0  0
   -0.2490    0.1400   -0.1730 N   0  0  0  0  0  0  0  0  0  0  0  0
   -0.1910    0.1480   -1.4260 O   0  0  0  0  0  0  0  0  0  0  0  0
   -1.2110    0.6490    0.4520 O   0  0  0  0  0  0  0  0  0  0  0  0
    3.8890   -2.2320    2.7060 O   0  0  0  0  0  0  0  0  0  0  0  0
    0.0000    0.0000    0.0000 H   0  0  0  0  0  0  0  0  0  0  0  0
    0.0000    0.0000    0.0000 H   0  0  0  0  0  0  0  0  0  0  0  0
    0.0000    0.0000    0.0000 H   0  0  0  0  0  0  0  0  0  0  0  0
    0.0000    0.0000    0.0000 H   0  0  0  0  0  0  0  0  0  0  0  0
    0.0000    0.0000    0.0000 H   0  0  0  0  0  0  0  0  0  0  0  0
  1  6  2  0
  1  2  1  0
  2  3  2  0
  3  4  1  0
  4  5  2  0
  5  6  1  0
  6  7  1  0
  7  8  1  0
  7  9  1  0
  3 10  1  0
  1 11  1  0
  2 12  1  0
  4 13  1  0
  5 14  1  0
 10 15  1  0
M  CHG  2   8  -1   9  -1
M  END
>  <partial_charges>  (213) 
-0.0277999993414
-0.200499996543
0.170599997044
-0.200499996543
-0.0277999993414
-0.219500005245
0.319799989462
-0.21250000596
-0.21250000596
-0.482499986887
0.173999994993
0.157499998808
0.157499998808
0.173999994993
0.430099993944

>  <partial_bond_orders>  (213) 
2.0
1.0
2.0
1.0
2.0
1.0
1.0
1.0
1.0
1.0
1.0
1.0
1.0
1.0
1.0

>  <atom_types>  (213) 
ca
ca
ca
ca
ca
ca
no
o
o
oh
ha
ha
ha
ha
ho

>  <target>  (213) 
-10.64

>  <cal>  (213) 
-8.472

$$$$
mobley_3167746
     RDKit          3D

 26 25  0  0  0  0  0  0  0  0999 V2000
    0.5810   -1.0130    0.8660 C   0  0  0  0  0  0  0  0  0  0  0  0
    0.2770   -0.4860    2.2600 C   0  0  0  0  0  0  0  0  0  0  0  0
    0.8900    0.8980    2.4780 C   0  0  0  0  0  0  0  0  0  0  0  0
    0.6120    1.4740    3.8700 C   0  0  0  0  0  0  0  0  0  0  0  0
    1.2250    2.8590    4.0890 C   0  0  0  0  0  0  0  0  0  0  0  0
    0.9170    3.3850    5.4930 C   0  0  0  0  0  0  0  0  0  0  0  0
    1.5280    4.7680    5.7150 C   0  0  0  0  0  0  0  0  0  0  0  0
    1.2240    5.2950    7.1080 C   0  0  0  0  0  0  0  0  0  0  0  0
    0.0000    0.0000    0.0000 H   0  0  0  0  0  0  0  0  0  0  0  0
    0.0000    0.0000    0.0000 H   0  0  0  0  0  0  0  0  0  0  0  0
    0.0000    0.0000    0.0000 H   0  0  0  0  0  0  0  0  0  0  0  0
    0.0000    0.0000    0.0000 H   0  0  0  0  0  0  0  0  0  0  0  0
    0.0000    0.0000    0.0000 H   0  0  0  0  0  0  0  0  0  0  0  0
    0.0000    0.0000    0.0000 H   0  0  0  0  0  0  0  0  0  0  0  0
    0.0000    0.0000    0.0000 H   0  0  0  0  0  0  0  0  0  0  0  0
    0.0000    0.0000    0.0000 H   0  0  0  0  0  0  0  0  0  0  0  0
    0.0000    0.0000    0.0000 H   0  0  0  0  0  0  0  0  0  0  0  0
    0.0000    0.0000    0.0000 H   0  0  0  0  0  0  0  0  0  0  0  0
    0.0000    0.0000    0.0000 H   0  0  0  0  0  0  0  0  0  0  0  0
    0.0000    0.0000    0.0000 H   0  0  0  0  0  0  0  0  0  0  0  0
    0.0000    0.0000    0.0000 H   0  0  0  0  0  0  0  0  0  0  0  0
    0.0000    0.0000    0.0000 H   0  0  0  0  0  0  0  0  0  0  0  0
    0.0000    0.0000    0.0000 H   0  0  0  0  0  0  0  0  0  0  0  0
    0.0000    0.0000    0.0000 H   0  0  0  0  0  0  0  0  0  0  0  0
    0.0000    0.0000    0.0000 H   0  0  0  0  0  0  0  0  0  0  0  0
    0.0000    0.0000    0.0000 H   0  0  0  0  0  0  0  0  0  0  0  0
  1  2  1  0
  2  3  1  0
  3  4  1  0
  4  5  1  0
  5  6  1  0
  6  7  1  0
  7  8  1  0
  1  9  1  0
  1 10  1  0
  1 11  1  0
  2 12  1  0
  2 13  1  0
  3 14  1  0
  3 15  1  0
  4 16  1  0
  4 17  1  0
  5 18  1  0
  5 19  1  0
  6 20  1  0
  6 21  1  0
  7 22  1  0
  7 23  1  0
  8 24  1  0
  8 25  1  0
  8 26  1  0
M  END
>  <partial_charges>  (214) 
-0.0922000035644
-0.0799999982119
-0.0793000012636
-0.0784000009298
-0.0784000009298
-0.0793000012636
-0.0799999982119
-0.0921000018716
0.0324999988079
0.0324999988079
0.0324999988079
0.0379000008106
0.0379000008106
0.0388999991119
0.0388999991119
0.0394000001252
0.0394000001252
0.0394000001252
0.0394000001252
0.0388999991119
0.0388999991119
0.0379000008106
0.0379000008106
0.0324999988079
0.0324999988079
0.0324999988079

>  <partial_bond_orders>  (214) 
1.0
1.0
1.0
1.0
1.0
1.0
1.0
1.0
1.0
1.0
1.0
1.0
1.0
1.0
1.0
1.0
1.0
1.0
1.0
1.0
1.0
1.0
1.0
1.0
1.0

>  <atom_types>  (214) 
c3
c3
c3
c3
c3
c3
c3
c3
hc
hc
hc
hc
hc
hc
hc
hc
hc
hc
hc
hc
hc
hc
hc
hc
hc
hc

>  <target>  (214) 
2.88

>  <cal>  (214) 
3.088

$$$$
mobley_8436428
     RDKit          3D

 23 22  0  0  0  0  0  0  0  0999 V2000
   -0.1770   -0.3060   -1.0580 C   0  0  0  0  0  0  0  0  0  0  0  0
   -1.6120    0.0270   -1.4680 C   0  0  0  0  0  0  0  0  0  0  0  0
   -1.7820   -0.1980   -2.9740 C   0  0  0  0  0  0  0  0  0  0  0  0
   -2.6540   -0.8080   -0.6980 C   0  0  0  0  0  0  0  0  0  0  0  0
   -2.6480   -0.6470    0.8360 C   0  0  0  0  0  0  0  0  0  0  0  0
   -2.9180    0.7930    1.2740 C   0  0  0  0  0  0  0  0  0  0  0  0
   -3.6950   -1.5790    1.4550 C   0  0  0  0  0  0  0  0  0  0  0  0
    0.0000    0.0000    0.0000 H   0  0  0  0  0  0  0  0  0  0  0  0
    0.0000    0.0000    0.0000 H   0  0  0  0  0  0  0  0  0  0  0  0
    0.0000    0.0000    0.0000 H   0  0  0  0  0  0  0  0  0  0  0  0
    0.0000    0.0000    0.0000 H   0  0  0  0  0  0  0  0  0  0  0  0
    0.0000    0.0000    0.0000 H   0  0  0  0  0  0  0  0  0  0  0  0
    0.0000    0.0000    0.0000 H   0  0  0  0  0  0  0  0  0  0  0  0
    0.0000    0.0000    0.0000 H   0  0  0  0  0  0  0  0  0  0  0  0
    0.0000    0.0000    0.0000 H   0  0  0  0  0  0  0  0  0  0  0  0
    0.0000    0.0000    0.0000 H   0  0  0  0  0  0  0  0  0  0  0  0
    0.0000    0.0000    0.0000 H   0  0  0  0  0  0  0  0  0  0  0  0
    0.0000    0.0000    0.0000 H   0  0  0  0  0  0  0  0  0  0  0  0
    0.0000    0.0000    0.0000 H   0  0  0  0  0  0  0  0  0  0  0  0
    0.0000    0.0000    0.0000 H   0  0  0  0  0  0  0  0  0  0  0  0
    0.0000    0.0000    0.0000 H   0  0  0  0  0  0  0  0  0  0  0  0
    0.0000    0.0000    0.0000 H   0  0  0  0  0  0  0  0  0  0  0  0
    0.0000    0.0000    0.0000 H   0  0  0  0  0  0  0  0  0  0  0  0
  1  2  1  0
  2  3  1  0
  2  4  1  0
  4  5  1  0
  5  6  1  0
  5  7  1  0
  1  8  1  0
  1  9  1  0
  1 10  1  0
  2 11  1  0
  3 12  1  0
  3 13  1  0
  3 14  1  0
  4 15  1  0
  4 16  1  0
  5 17  1  0
  6 18  1  0
  6 19  1  0
  6 20  1  0
  7 21  1  0
  7 22  1  0
  7 23  1  0
M  END
>  <partial_charges>  (215) 
-0.0899000018835
-0.0670000016689
-0.0899000018835
-0.0706000030041
-0.0670000016689
-0.0899000018835
-0.0899000018835
0.0329999998212
0.0329999998212
0.0329999998212
0.0461999997497
0.0329999998212
0.0329999998212
0.0329999998212
0.0381000004709
0.0381000004709
0.0461999997497
0.0329999998212
0.0329999998212
0.0329999998212
0.0329999998212
0.0329999998212
0.0329999998212

>  <partial_bond_orders>  (215) 
1.0
1.0
1.0
1.0
1.0
1.0
1.0
1.0
1.0
1.0
1.0
1.0
1.0
1.0
1.0
1.0
1.0
1.0
1.0
1.0
1.0
1.0

>  <atom_types>  (215) 
c3
c3
c3
c3
c3
c3
c3
hc
hc
hc
hc
hc
hc
hc
hc
hc
hc
hc
hc
hc
hc
hc
hc

>  <target>  (215) 
2.83

>  <cal>  (215) 
2.756

$$$$
mobley_7150646
     RDKit          3D

 12 12  0  0  0  0  0  0  0  0999 V2000
    1.8850   -1.0360   -0.1120 C   0  0  0  0  0  0  0  0  0  0  0  0
    2.9210   -1.6310    0.6080 C   0  0  0  0  0  0  0  0  0  0  0  0
    2.8780   -1.6520    2.0020 C   0  0  0  0  0  0  0  0  0  0  0  0
    1.8000   -1.0790    2.6760 C   0  0  0  0  0  0  0  0  0  0  0  0
    0.7640   -0.4840    1.9550 C   0  0  0  0  0  0  0  0  0  0  0  0
    0.8070   -0.4630    0.5610 C   0  0  0  0  0  0  0  0  0  0  0  0
   -0.5970    0.3430   -0.4150 Br  0  0  0  0  0  0  0  0  0  0  0  0
    4.2820   -2.4580    2.9780 Br  0  0  0  0  0  0  0  0  0  0  0  0
    0.0000    0.0000    0.0000 H   0  0  0  0  0  0  0  0  0  0  0  0
    0.0000    0.0000    0.0000 H   0  0  0  0  0  0  0  0  0  0  0  0
    0.0000    0.0000    0.0000 H   0  0  0  0  0  0  0  0  0  0  0  0
    0.0000    0.0000    0.0000 H   0  0  0  0  0  0  0  0  0  0  0  0
  1  6  2  0
  1  2  1  0
  2  3  2  0
  3  4  1  0
  4  5  2  0
  5  6  1  0
  6  7  1  0
  3  8  1  0
  1  9  1  0
  2 10  1  0
  4 11  1  0
  5 12  1  0
M  END
>  <partial_charges>  (216) 
-0.104400001466
-0.104400001466
-0.0168999992311
-0.104400001466
-0.104400001466
-0.0168999992311
-0.0778999999166
-0.0778999999166
0.151700004935
0.151700004935
0.151700004935
0.151700004935

>  <partial_bond_orders>  (216) 
2.0
1.0
2.0
1.0
2.0
1.0
1.0
1.0
1.0
1.0
1.0
1.0

>  <atom_types>  (216) 
ca
ca
ca
ca
ca
ca
br
br
ha
ha
ha
ha

>  <target>  (216) 
-2.3

>  <cal>  (216) 
-1.091

$$$$
mobley_1755375
     RDKit          3D

 19 19  0  0  0  0  0  0  0  0999 V2000
    1.9500   -1.0220   -1.6040 C   0  0  0  0  0  0  0  0  0  0  0  0
    1.8850   -1.0360   -0.1120 C   0  0  0  0  0  0  0  0  0  0  0  0
    2.9210   -1.6310    0.6080 C   0  0  0  0  0  0  0  0  0  0  0  0
    2.8780   -1.6520    2.0020 C   0  0  0  0  0  0  0  0  0  0  0  0
    1.8000   -1.0790    2.6760 C   0  0  0  0  0  0  0  0  0  0  0  0
    0.7640   -0.4840    1.9550 C   0  0  0  0  0  0  0  0  0  0  0  0
    0.8070   -0.4630    0.5610 C   0  0  0  0  0  0  0  0  0  0  0  0
   -0.2060    0.1190   -0.1430 O   0  0  0  0  0  0  0  0  0  0  0  0
   -0.3830    0.1240    2.6940 C   0  0  0  0  0  0  0  0  0  0  0  0
    0.0000    0.0000    0.0000 H   0  0  0  0  0  0  0  0  0  0  0  0
    0.0000    0.0000    0.0000 H   0  0  0  0  0  0  0  0  0  0  0  0
    0.0000    0.0000    0.0000 H   0  0  0  0  0  0  0  0  0  0  0  0
    0.0000    0.0000    0.0000 H   0  0  0  0  0  0  0  0  0  0  0  0
    0.0000    0.0000    0.0000 H   0  0  0  0  0  0  0  0  0  0  0  0
    0.0000    0.0000    0.0000 H   0  0  0  0  0  0  0  0  0  0  0  0
    0.0000    0.0000    0.0000 H   0  0  0  0  0  0  0  0  0  0  0  0
    0.0000    0.0000    0.0000 H   0  0  0  0  0  0  0  0  0  0  0  0
    0.0000    0.0000    0.0000 H   0  0  0  0  0  0  0  0  0  0  0  0
    0.0000    0.0000    0.0000 H   0  0  0  0  0  0  0  0  0  0  0  0
  1  2  1  0
  2  7  2  0
  2  3  1  0
  3  4  2  0
  4  5  1  0
  5  6  2  0
  6  7  1  0
  7  8  1  0
  6  9  1  0
  1 10  1  0
  1 11  1  0
  1 12  1  0
  3 13  1  0
  4 14  1  0
  5 15  1  0
  8 16  1  0
  9 17  1  0
  9 18  1  0
  9 19  1  0
M  END
>  <partial_charges>  (217) 
-0.0494999997318
-0.125
-0.10339999944
-0.156399995089
-0.10339999944
-0.125
0.124300003052
-0.501699984074
-0.0494999997318
0.0454000011086
0.0454000011086
0.0454000011086
0.132300004363
0.132799997926
0.132300004363
0.41969999671
0.0454000011086
0.0454000011086
0.0454000011086

>  <partial_bond_orders>  (217) 
1.0
2.0
1.0
2.0
1.0
2.0
1.0
1.0
1.0
1.0
1.0
1.0
1.0
1.0
1.0
1.0
1.0
1.0
1.0

>  <atom_types>  (217) 
c3
ca
ca
ca
ca
ca
ca
oh
c3
hc
hc
hc
ha
ha
ha
ho
hc
hc
hc

>  <target>  (217) 
-5.26

>  <cal>  (217) 
-4.308

$$$$
mobley_7988076
     RDKit          3D

 15 15  0  0  0  0  0  0  0  0999 V2000
    1.8850   -1.0360   -0.1120 C   0  0  0  0  0  0  0  0  0  0  0  0
    2.9210   -1.6310    0.6080 C   0  0  0  0  0  0  0  0  0  0  0  0
    2.8780   -1.6520    2.0020 C   0  0  0  0  0  0  0  0  0  0  0  0
    1.8000   -1.0790    2.6760 C   0  0  0  0  0  0  0  0  0  0  0  0
    0.7640   -0.4840    1.9550 C   0  0  0  0  0  0  0  0  0  0  0  0
    0.8070   -0.4630    0.5610 C   0  0  0  0  0  0  0  0  0  0  0  0
   -0.2730    0.1570   -0.1900 C   0  0  0  0  0  0  0  0  0  0  0  0
   -1.2540    0.6800    0.3460 O   0  0  0  0  0  0  0  0  0  0  0  0
    3.8890   -2.2320    2.7060 O   0  0  0  0  0  0  0  0  0  0  0  0
    0.0000    0.0000    0.0000 H   0  0  0  0  0  0  0  0  0  0  0  0
    0.0000    0.0000    0.0000 H   0  0  0  0  0  0  0  0  0  0  0  0
    0.0000    0.0000    0.0000 H   0  0  0  0  0  0  0  0  0  0  0  0
    0.0000    0.0000    0.0000 H   0  0  0  0  0  0  0  0  0  0  0  0
    0.0000    0.0000    0.0000 H   0  0  0  0  0  0  0  0  0  0  0  0
    0.0000    0.0000    0.0000 H   0  0  0  0  0  0  0  0  0  0  0  0
  1  6  2  0
  1  2  1  0
  2  3  2  0
  3  4  1  0
  4  5  2  0
  5  6  1  0
  6  7  1  0
  7  8  2  0
  3  9  1  0
  1 10  1  0
  2 11  1  0
  4 12  1  0
  5 13  1  0
  7 14  1  0
  9 15  1  0
M  END
>  <partial_charges>  (218) 
-0.0408000014722
-0.202800005674
0.15680000186
-0.202800005674
-0.0408000014722
-0.234799996018
0.579900026321
-0.5325999856
-0.490299999714
0.147699996829
0.147100001574
0.147100001574
0.147699996829
-0.00529999984428
0.423900008202

>  <partial_bond_orders>  (218) 
2.0
1.0
2.0
1.0
2.0
1.0
1.0
2.0
1.0
1.0
1.0
1.0
1.0
1.0
1.0

>  <atom_types>  (218) 
ca
ca
ca
ca
ca
ca
c
o
oh
ha
ha
ha
ha
h4
ho

>  <target>  (218) 
-8.83

>  <cal>  (218) 
-10.05

$$$$
mobley_5094777
     RDKit          3D

 19 20  0  0  0  0  0  0  0  0999 V2000
   -0.9110   -1.1190    1.6050 C   0  0  0  0  0  0  0  0  0  0  0  0
   -0.1940   -0.9900    0.4050 C   0  0  0  0  0  0  0  0  0  0  0  0
    0.2780   -2.1190   -0.2680 C   0  0  0  0  0  0  0  0  0  0  0  0
    0.0090   -3.3650    0.2730 C   0  0  0  0  0  0  0  0  0  0  0  0
   -0.7060   -3.4940    1.4690 C   0  0  0  0  0  0  0  0  0  0  0  0
   -1.1670   -2.3790    2.1500 C   0  0  0  0  0  0  0  0  0  0  0  0
   -0.8220   -4.9310    1.8680 C   0  0  0  0  0  0  0  0  0  0  0  0
   -0.5010   -5.6350    0.5410 C   0  0  0  0  0  0  0  0  0  0  0  0
    0.4390   -4.7030   -0.2380 C   0  0  0  0  0  0  0  0  0  0  0  0
    0.0000    0.0000    0.0000 H   0  0  0  0  0  0  0  0  0  0  0  0
    0.0000    0.0000    0.0000 H   0  0  0  0  0  0  0  0  0  0  0  0
    0.0000    0.0000    0.0000 H   0  0  0  0  0  0  0  0  0  0  0  0
    0.0000    0.0000    0.0000 H   0  0  0  0  0  0  0  0  0  0  0  0
    0.0000    0.0000    0.0000 H   0  0  0  0  0  0  0  0  0  0  0  0
    0.0000    0.0000    0.0000 H   0  0  0  0  0  0  0  0  0  0  0  0
    0.0000    0.0000    0.0000 H   0  0  0  0  0  0  0  0  0  0  0  0
    0.0000    0.0000    0.0000 H   0  0  0  0  0  0  0  0  0  0  0  0
    0.0000    0.0000    0.0000 H   0  0  0  0  0  0  0  0  0  0  0  0
    0.0000    0.0000    0.0000 H   0  0  0  0  0  0  0  0  0  0  0  0
  1  6  2  0
  1  2  1  0
  2  3  2  0
  3  4  1  0
  4  9  1  0
  4  5  2  0
  5  6  1  0
  5  7  1  0
  7  8  1  0
  8  9  1  0
  1 10  1  0
  2 11  1  0
  3 12  1  0
  6 13  1  0
  7 14  1  0
  7 15  1  0
  8 16  1  0
  8 17  1  0
  9 18  1  0
  9 19  1  0
M  END
>  <partial_charges>  (219) 
-0.131300002337
-0.131300002337
-0.118799999356
-0.0870999991894
-0.0870999991894
-0.118799999356
-0.0359999984503
-0.0795999988914
-0.0359999984503
0.129399999976
0.129399999976
0.131899997592
0.131899997592
0.0533999986947
0.0533999986947
0.0447999984026
0.0447999984026
0.0533999986947
0.0533999986947

>  <partial_bond_orders>  (219) 
2.0
1.0
2.0
1.0
1.0
2.0
1.0
1.0
1.0
1.0
1.0
1.0
1.0
1.0
1.0
1.0
1.0
1.0
1.0
1.0

>  <atom_types>  (219) 
ca
ca
ca
ca
ca
ca
c3
c3
c3
ha
ha
ha
ha
hc
hc
hc
hc
hc
hc

>  <target>  (219) 
-1.46

>  <cal>  (219) 
-1.752

$$$$
mobley_3999471
     RDKit          3D

  8  7  0  0  0  0  0  0  0  0999 V2000
   -0.4710    0.6840    0.7150 C   0  0  0  0  0  0  0  0  0  0  0  0
   -0.0880    0.3250    2.1390 C   0  0  0  0  0  0  0  0  0  0  0  0
   -0.8870    1.4230    3.2880 Cl  0  0  0  0  0  0  0  0  0  0  0  0
    1.6770    0.4130    2.3440 Cl  0  0  0  0  0  0  0  0  0  0  0  0
    0.0000    0.0000    0.0000 H   0  0  0  0  0  0  0  0  0  0  0  0
    0.0000    0.0000    0.0000 H   0  0  0  0  0  0  0  0  0  0  0  0
    0.0000    0.0000    0.0000 H   0  0  0  0  0  0  0  0  0  0  0  0
    0.0000    0.0000    0.0000 H   0  0  0  0  0  0  0  0  0  0  0  0
  1  2  1  0
  2  3  1  0
  2  4  1  0
  1  5  1  0
  1  6  1  0
  1  7  1  0
  2  8  1  0
M  END
>  <partial_charges>  (220) 
-0.112199999392
0.156100004911
-0.162699997425
-0.162699997425
0.0625
0.0625
0.0625
0.0940999984741

>  <partial_bond_orders>  (220) 
1.0
1.0
1.0
1.0
1.0
1.0
1.0

>  <atom_types>  (220) 
c3
c3
cl
cl
hc
hc
hc
h2

>  <target>  (220) 
-0.84

>  <cal>  (220) 
0.187

$$$$
mobley_7774695
     RDKit          3D

 17 17  0  0  0  0  0  0  0  0999 V2000
    3.0050   -1.5810   -2.2990 C   0  0  0  0  0  0  0  0  0  0  0  0
    1.9290   -1.0140   -1.5220 N   0  0  0  0  0  0  0  0  0  0  0  0
    1.8850   -1.0360   -0.1120 C   0  0  0  0  0  0  0  0  0  0  0  0
    2.9210   -1.6310    0.6080 C   0  0  0  0  0  0  0  0  0  0  0  0
    2.8780   -1.6520    2.0020 C   0  0  0  0  0  0  0  0  0  0  0  0
    1.8000   -1.0790    2.6760 C   0  0  0  0  0  0  0  0  0  0  0  0
    0.7640   -0.4840    1.9550 C   0  0  0  0  0  0  0  0  0  0  0  0
    0.8070   -0.4630    0.5610 C   0  0  0  0  0  0  0  0  0  0  0  0
    0.0000    0.0000    0.0000 H   0  0  0  0  0  0  0  0  0  0  0  0
    0.0000    0.0000    0.0000 H   0  0  0  0  0  0  0  0  0  0  0  0
    0.0000    0.0000    0.0000 H   0  0  0  0  0  0  0  0  0  0  0  0
    0.0000    0.0000    0.0000 H   0  0  0  0  0  0  0  0  0  0  0  0
    0.0000    0.0000    0.0000 H   0  0  0  0  0  0  0  0  0  0  0  0
    0.0000    0.0000    0.0000 H   0  0  0  0  0  0  0  0  0  0  0  0
    0.0000    0.0000    0.0000 H   0  0  0  0  0  0  0  0  0  0  0  0
    0.0000    0.0000    0.0000 H   0  0  0  0  0  0  0  0  0  0  0  0
    0.0000    0.0000    0.0000 H   0  0  0  0  0  0  0  0  0  0  0  0
  1  2  1  0
  2  3  1  0
  3  8  2  0
  3  4  1  0
  4  5  2  0
  5  6  1  0
  6  7  2  0
  7  8  1  0
  1  9  1  0
  1 10  1  0
  1 11  1  0
  2 12  1  0
  4 13  1  0
  5 14  1  0
  6 15  1  0
  7 16  1  0
  8 17  1  0
M  END
>  <partial_charges>  (221) 
0.220799997449
-0.80680000782
0.199599996209
-0.211300000548
-0.0842000022531
-0.188400000334
-0.0842000022531
-0.211300000548
0.0326000005007
0.0326000005007
0.0326000005007
0.430000007153
0.128099992871
0.126000002027
0.129899993539
0.126000002027
0.128099992871

>  <partial_bond_orders>  (221) 
1.0
1.0
2.0
1.0
2.0
1.0
2.0
1.0
1.0
1.0
1.0
1.0
1.0
1.0
1.0
1.0
1.0

>  <atom_types>  (221) 
c3
nh
ca
ca
ca
ca
ca
ca
h1
h1
h1
hn
ha
ha
ha
ha
ha

>  <target>  (221) 
-4.69

>  <cal>  (221) 
-5.719

$$$$
mobley_3398536
     RDKit          3D

 12 12  0  0  0  0  0  0  0  0999 V2000
    1.8850   -1.0360   -0.1120 C   0  0  0  0  0  0  0  0  0  0  0  0
    2.9210   -1.6310    0.6080 C   0  0  0  0  0  0  0  0  0  0  0  0
    2.8780   -1.6520    2.0020 C   0  0  0  0  0  0  0  0  0  0  0  0
    1.8000   -1.0790    2.6760 C   0  0  0  0  0  0  0  0  0  0  0  0
    0.7640   -0.4840    1.9550 C   0  0  0  0  0  0  0  0  0  0  0  0
    0.8070   -0.4630    0.5610 C   0  0  0  0  0  0  0  0  0  0  0  0
    1.7360   -1.1110    4.7520 I   0  0  0  0  0  0  0  0  0  0  0  0
    0.0000    0.0000    0.0000 H   0  0  0  0  0  0  0  0  0  0  0  0
    0.0000    0.0000    0.0000 H   0  0  0  0  0  0  0  0  0  0  0  0
    0.0000    0.0000    0.0000 H   0  0  0  0  0  0  0  0  0  0  0  0
    0.0000    0.0000    0.0000 H   0  0  0  0  0  0  0  0  0  0  0  0
    0.0000    0.0000    0.0000 H   0  0  0  0  0  0  0  0  0  0  0  0
  1  6  2  0
  1  2  1  0
  2  3  2  0
  3  4  1  0
  4  5  2  0
  5  6  1  0
  4  7  1  0
  1  8  1  0
  2  9  1  0
  3 10  1  0
  5 11  1  0
  6 12  1  0
M  END
>  <partial_charges>  (222) 
-0.112400002778
-0.133900001645
-0.096400000155
0.0230999998748
-0.096400000155
-0.133900001645
-0.145699992776
0.134800001979
0.136899992824
0.143500000238
0.143500000238
0.136899992824

>  <partial_bond_orders>  (222) 
2.0
1.0
2.0
1.0
2.0
1.0
1.0
1.0
1.0
1.0
1.0
1.0

>  <atom_types>  (222) 
ca
ca
ca
ca
ca
ca
i
ha
ha
ha
ha
ha

>  <target>  (222) 
-1.74

>  <cal>  (222) 
-1.057

$$$$
mobley_2725215
     RDKit          3D

 42 42  0  0  0  0  0  0  0  0999 V2000
    3.4480    3.6060   -0.0290 C   0  0  0  0  0  0  0  0  0  0  0  0
    3.6340    2.8450   -1.3340 C   0  0  0  0  0  0  0  0  0  0  0  0
    2.6190    1.7220   -1.5110 C   0  0  0  0  0  0  0  0  0  0  0  0
    2.8010    1.0090   -2.7450 N   0  0  0  0  0  0  0  0  0  0  0  0
    2.7100    1.7480   -4.0090 C   0  0  0  0  0  0  0  0  0  0  0  0
    1.3460    2.3800   -4.1790 C   0  0  0  0  0  0  0  0  0  0  0  0
    1.2060    3.1580   -5.4800 C   0  0  0  0  0  0  0  0  0  0  0  0
    3.0770   -0.3690   -2.7670 C   0  0  0  0  0  0  0  0  0  0  0  0
    4.3970   -0.8170   -2.7380 C   0  0  0  0  0  0  0  0  0  0  0  0
    4.6710   -2.1850   -2.7600 C   0  0  0  0  0  0  0  0  0  0  0  0
    3.6230   -3.1050   -2.8090 C   0  0  0  0  0  0  0  0  0  0  0  0
    2.3020   -2.6570   -2.8380 C   0  0  0  0  0  0  0  0  0  0  0  0
    2.0290   -1.2890   -2.8160 C   0  0  0  0  0  0  0  0  0  0  0  0
    0.6710   -0.8620   -2.8470 N   0  0  0  0  0  0  0  0  0  0  0  0
    0.1270   -0.6570   -3.9570 O   0  0  0  0  0  0  0  0  0  0  0  0
    0.0630   -0.7040   -1.7630 O   0  0  0  0  0  0  0  0  0  0  0  0
    3.9660   -4.8170   -2.8330 S   0  0  0  0  0  0  0  0  0  0  0  0
    5.2710   -5.0220   -2.2210 O   0  0  0  0  0  0  0  0  0  0  0  0
    2.8070   -5.5370   -2.3230 O   0  0  0  0  0  0  0  0  0  0  0  0
    4.1040   -5.2150   -4.5610 C   0  0  0  0  0  0  0  0  0  0  0  0
    5.4870    0.0970   -2.6860 N   0  0  0  0  0  0  0  0  0  0  0  0
    5.9180    0.4620   -1.5670 O   0  0  0  0  0  0  0  0  0  0  0  0
    5.9810    0.5100   -3.7610 O   0  0  0  0  0  0  0  0  0  0  0  0
    0.0000    0.0000    0.0000 H   0  0  0  0  0  0  0  0  0  0  0  0
    0.0000    0.0000    0.0000 H   0  0  0  0  0  0  0  0  0  0  0  0
    0.0000    0.0000    0.0000 H   0  0  0  0  0  0  0  0  0  0  0  0
    0.0000    0.0000    0.0000 H   0  0  0  0  0  0  0  0  0  0  0  0
    0.0000    0.0000    0.0000 H   0  0  0  0  0  0  0  0  0  0  0  0
    0.0000    0.0000    0.0000 H   0  0  0  0  0  0  0  0  0  0  0  0
    0.0000    0.0000    0.0000 H   0  0  0  0  0  0  0  0  0  0  0  0
    0.0000    0.0000    0.0000 H   0  0  0  0  0  0  0  0  0  0  0  0
    0.0000    0.0000    0.0000 H   0  0  0  0  0  0  0  0  0  0  0  0
    0.0000    0.0000    0.0000 H   0  0  0  0  0  0  0  0  0  0  0  0
    0.0000    0.0000    0.0000 H   0  0  0  0  0  0  0  0  0  0  0  0
    0.0000    0.0000    0.0000 H   0  0  0  0  0  0  0  0  0  0  0  0
    0.0000    0.0000    0.0000 H   0  0  0  0  0  0  0  0  0  0  0  0
    0.0000    0.0000    0.0000 H   0  0  0  0  0  0  0  0  0  0  0  0
    0.0000    0.0000    0.0000 H   0  0  0  0  0  0  0  0  0  0  0  0
    0.0000    0.0000    0.0000 H   0  0  0  0  0  0  0  0  0  0  0  0
    0.0000    0.0000    0.0000 H   0  0  0  0  0  0  0  0  0  0  0  0
    0.0000    0.0000    0.0000 H   0  0  0  0  0  0  0  0  0  0  0  0
    0.0000    0.0000    0.0000 H   0  0  0  0  0  0  0  0  0  0  0  0
  1  2  1  0
  2  3  1  0
  3  4  1  0
  4  5  1  0
  5  6  1  0
  6  7  1  0
  4  8  1  0
  8 13  2  0
  8  9  1  0
  9 10  2  0
 10 11  1  0
 11 12  2  0
 12 13  1  0
 13 14  1  0
 14 15  1  0
 14 16  1  0
 11 17  1  0
 17 18  2  0
 17 19  2  0
 17 20  1  0
  9 21  1  0
 21 22  1  0
 21 23  1  0
  1 24  1  0
  1 25  1  0
  1 26  1  0
  2 27  1  0
  2 28  1  0
  3 29  1  0
  3 30  1  0
  5 31  1  0
  5 32  1  0
  6 33  1  0
  6 34  1  0
  7 35  1  0
  7 36  1  0
  7 37  1  0
 10 38  1  0
 12 39  1  0
 20 40  1  0
 20 41  1  0
 20 42  1  0
M  CHG  4  15  -1  16  -1  22  -1  23  -1
M  END
>  <partial_charges>  (223) 
-0.090499997139
-0.109200000763
0.238800004125
-0.791700005531
0.238800004125
-0.109200000763
-0.090499997139
0.328599989414
-0.193100005388
0.0403999984264
-0.363200008869
0.0403999984264
-0.193100005388
0.31819999218
-0.180199995637
-0.180199995637
1.39499998093
-0.642199993134
-0.642199993134
-0.374300003052
0.31819999218
-0.180199995637
-0.180199995637
0.0379999987781
0.0379999987781
0.0379999987781
0.0535999983549
0.0535999983549
0.0535000003874
0.0535000003874
0.0535000003874
0.0535000003874
0.0535999983549
0.0535999983549
0.0379999987781
0.0379999987781
0.0379999987781
0.186100006104
0.186100006104
0.124099999666
0.124099999666
0.124099999666

>  <partial_bond_orders>  (223) 
1.0
1.0
1.0
1.0
1.0
1.0
1.0
2.0
1.0
2.0
1.0
2.0
1.0
1.0
1.0
1.0
1.0
2.0
2.0
1.0
1.0
1.0
1.0
1.0
1.0
1.0
1.0
1.0
1.0
1.0
1.0
1.0
1.0
1.0
1.0
1.0
1.0
1.0
1.0
1.0
1.0
1.0

>  <atom_types>  (223) 
c3
c3
c3
nh
c3
c3
c3
ca
ca
ca
ca
ca
ca
no
o
o
sy
o
o
c3
no
o
o
hc
hc
hc
hc
hc
h1
h1
h1
h1
hc
hc
hc
hc
hc
ha
ha
h1
h1
h1

>  <target>  (223) 
-7.98

>  <cal>  (223) 
-11.246

$$$$
mobley_2043882
     RDKit          3D

 23 23  0  0  0  0  0  0  0  0999 V2000
    0.0510    0.6950   -1.3300 C   0  0  0  0  0  0  0  0  0  0  0  0
    0.7300   -0.4750   -0.6710 C   0  0  0  0  0  0  0  0  0  0  0  0
    1.4870   -0.3260    0.2870 O   0  0  0  0  0  0  0  0  0  0  0  0
    0.4390   -1.8330   -1.2410 C   0  0  0  0  0  0  0  0  0  0  0  0
    1.0890   -2.9170   -0.3780 C   0  0  0  0  0  0  0  0  0  0  0  0
    2.5980   -3.0260   -0.5900 C   0  0  0  0  0  0  0  0  0  0  0  0
    2.9490   -3.1870   -2.0640 C   0  0  0  0  0  0  0  0  0  0  0  0
    2.3700   -2.0530   -2.9020 C   0  0  0  0  0  0  0  0  0  0  0  0
    0.8600   -1.9150   -2.7090 C   0  0  0  0  0  0  0  0  0  0  0  0
    0.0000    0.0000    0.0000 H   0  0  0  0  0  0  0  0  0  0  0  0
    0.0000    0.0000    0.0000 H   0  0  0  0  0  0  0  0  0  0  0  0
    0.0000    0.0000    0.0000 H   0  0  0  0  0  0  0  0  0  0  0  0
    0.0000    0.0000    0.0000 H   0  0  0  0  0  0  0  0  0  0  0  0
    0.0000    0.0000    0.0000 H   0  0  0  0  0  0  0  0  0  0  0  0
    0.0000    0.0000    0.0000 H   0  0  0  0  0  0  0  0  0  0  0  0
    0.0000    0.0000    0.0000 H   0  0  0  0  0  0  0  0  0  0  0  0
    0.0000    0.0000    0.0000 H   0  0  0  0  0  0  0  0  0  0  0  0
    0.0000    0.0000    0.0000 H   0  0  0  0  0  0  0  0  0  0  0  0
    0.0000    0.0000    0.0000 H   0  0  0  0  0  0  0  0  0  0  0  0
    0.0000    0.0000    0.0000 H   0  0  0  0  0  0  0  0  0  0  0  0
    0.0000    0.0000    0.0000 H   0  0  0  0  0  0  0  0  0  0  0  0
    0.0000    0.0000    0.0000 H   0  0  0  0  0  0  0  0  0  0  0  0
    0.0000    0.0000    0.0000 H   0  0  0  0  0  0  0  0  0  0  0  0
  1  2  1  0
  2  3  2  0
  2  4  1  0
  4  9  1  0
  4  5  1  0
  5  6  1  0
  6  7  1  0
  7  8  1  0
  8  9  1  0
  1 10  1  0
  1 11  1  0
  1 12  1  0
  4 13  1  0
  5 14  1  0
  5 15  1  0
  6 16  1  0
  6 17  1  0
  7 18  1  0
  7 19  1  0
  8 20  1  0
  8 21  1  0
  9 22  1  0
  9 23  1  0
M  END
>  <partial_charges>  (224) 
-0.201800003648
0.566900014877
-0.535499989986
-0.158500000834
-0.0644000023603
-0.0790000036359
-0.0758000016212
-0.0790000036359
-0.0644000023603
0.0626000016928
0.0626000016928
0.0626000016928
0.0627999976277
0.0443000011146
0.0443000011146
0.0465000011027
0.0465000011027
0.0388999991119
0.0388999991119
0.0465000011027
0.0465000011027
0.0443000011146
0.0443000011146

>  <partial_bond_orders>  (224) 
1.0
2.0
1.0
1.0
1.0
1.0
1.0
1.0
1.0
1.0
1.0
1.0
1.0
1.0
1.0
1.0
1.0
1.0
1.0
1.0
1.0
1.0
1.0

>  <atom_types>  (224) 
c3
c
o
c3
c3
c3
c3
c3
c3
hc
hc
hc
hc
hc
hc
hc
hc
hc
hc
hc
hc
hc
hc

>  <target>  (224) 
-3.9

>  <cal>  (224) 
-4.003

$$$$
mobley_9838013
     RDKit          3D

 18 17  0  0  0  0  0  0  0  0999 V2000
   -0.6450    0.3350    0.8030 C   0  0  0  0  0  0  0  0  0  0  0  0
   -1.8900    1.0450    0.2810 C   0  0  0  0  0  0  0  0  0  0  0  0
   -2.8430    0.1480   -0.5330 C   0  0  0  0  0  0  0  0  0  0  0  0
   -2.1690   -0.4440   -1.7720 C   0  0  0  0  0  0  0  0  0  0  0  0
   -4.0810    0.9470   -0.9520 C   0  0  0  0  0  0  0  0  0  0  0  0
   -3.2780   -0.9430    0.2800 O   0  0  0  0  0  0  0  0  0  0  0  0
    0.0000    0.0000    0.0000 H   0  0  0  0  0  0  0  0  0  0  0  0
    0.0000    0.0000    0.0000 H   0  0  0  0  0  0  0  0  0  0  0  0
    0.0000    0.0000    0.0000 H   0  0  0  0  0  0  0  0  0  0  0  0
    0.0000    0.0000    0.0000 H   0  0  0  0  0  0  0  0  0  0  0  0
    0.0000    0.0000    0.0000 H   0  0  0  0  0  0  0  0  0  0  0  0
    0.0000    0.0000    0.0000 H   0  0  0  0  0  0  0  0  0  0  0  0
    0.0000    0.0000    0.0000 H   0  0  0  0  0  0  0  0  0  0  0  0
    0.0000    0.0000    0.0000 H   0  0  0  0  0  0  0  0  0  0  0  0
    0.0000    0.0000    0.0000 H   0  0  0  0  0  0  0  0  0  0  0  0
    0.0000    0.0000    0.0000 H   0  0  0  0  0  0  0  0  0  0  0  0
    0.0000    0.0000    0.0000 H   0  0  0  0  0  0  0  0  0  0  0  0
    0.0000    0.0000    0.0000 H   0  0  0  0  0  0  0  0  0  0  0  0
  1  2  1  0
  2  3  1  0
  3  4  1  0
  3  5  1  0
  3  6  1  0
  1  7  1  0
  1  8  1  0
  1  9  1  0
  2 10  1  0
  2 11  1  0
  4 12  1  0
  4 13  1  0
  4 14  1  0
  5 15  1  0
  5 16  1  0
  5 17  1  0
  6 18  1  0
M  END
>  <partial_charges>  (225) 
-0.0891000032425
-0.105599999428
0.148900002241
-0.103000000119
-0.103000000119
-0.598299980164
0.0379000008106
0.0379000008106
0.0379000008106
0.0405000001192
0.0405000001192
0.0432000011206
0.0432000011206
0.0432000011206
0.0432000011206
0.0432000011206
0.0432000011206
0.39620000124

>  <partial_bond_orders>  (225) 
1.0
1.0
1.0
1.0
1.0
1.0
1.0
1.0
1.0
1.0
1.0
1.0
1.0
1.0
1.0
1.0
1.0

>  <atom_types>  (225) 
c3
c3
c3
c3
c3
oh
hc
hc
hc
hc
hc
hc
hc
hc
hc
hc
hc
ho

>  <target>  (225) 
-4.43

>  <cal>  (225) 
-2.933

$$$$
mobley_6416775
     RDKit          3D

 24 24  0  0  0  0  0  0  0  0999 V2000
    2.6340   -1.6920   -5.5630 C   0  0  0  0  0  0  0  0  0  0  0  0
    2.0880   -1.4960   -4.1580 C   0  0  0  0  0  0  0  0  0  0  0  0
    0.5910   -1.1930   -4.1770 C   0  0  0  0  0  0  0  0  0  0  0  0
    0.0450   -0.9980   -2.7730 C   0  0  0  0  0  0  0  0  0  0  0  0
    0.6370    0.2130   -2.0600 C   0  0  0  0  0  0  0  0  0  0  0  0
   -0.3400    0.4880   -0.9210 C   0  0  0  0  0  0  0  0  0  0  0  0
   -1.6800   -0.1060   -1.3570 C   0  0  0  0  0  0  0  0  0  0  0  0
   -1.4490   -0.6930   -2.7460 C   0  0  0  0  0  0  0  0  0  0  0  0
    0.0000    0.0000    0.0000 H   0  0  0  0  0  0  0  0  0  0  0  0
    0.0000    0.0000    0.0000 H   0  0  0  0  0  0  0  0  0  0  0  0
    0.0000    0.0000    0.0000 H   0  0  0  0  0  0  0  0  0  0  0  0
    0.0000    0.0000    0.0000 H   0  0  0  0  0  0  0  0  0  0  0  0
    0.0000    0.0000    0.0000 H   0  0  0  0  0  0  0  0  0  0  0  0
    0.0000    0.0000    0.0000 H   0  0  0  0  0  0  0  0  0  0  0  0
    0.0000    0.0000    0.0000 H   0  0  0  0  0  0  0  0  0  0  0  0
    0.0000    0.0000    0.0000 H   0  0  0  0  0  0  0  0  0  0  0  0
    0.0000    0.0000    0.0000 H   0  0  0  0  0  0  0  0  0  0  0  0
    0.0000    0.0000    0.0000 H   0  0  0  0  0  0  0  0  0  0  0  0
    0.0000    0.0000    0.0000 H   0  0  0  0  0  0  0  0  0  0  0  0
    0.0000    0.0000    0.0000 H   0  0  0  0  0  0  0  0  0  0  0  0
    0.0000    0.0000    0.0000 H   0  0  0  0  0  0  0  0  0  0  0  0
    0.0000    0.0000    0.0000 H   0  0  0  0  0  0  0  0  0  0  0  0
    0.0000    0.0000    0.0000 H   0  0  0  0  0  0  0  0  0  0  0  0
    0.0000    0.0000    0.0000 H   0  0  0  0  0  0  0  0  0  0  0  0
  1  2  1  0
  2  3  1  0
  3  4  1  0
  4  8  1  0
  4  5  1  0
  5  6  1  0
  6  7  1  0
  7  8  1  0
  1  9  1  0
  1 10  1  0
  1 11  1  0
  2 12  1  0
  2 13  1  0
  3 14  1  0
  3 15  1  0
  4 16  1  0
  5 17  1  0
  5 18  1  0
  6 19  1  0
  6 20  1  0
  7 21  1  0
  7 22  1  0
  8 23  1  0
  8 24  1  0
M  END
>  <partial_charges>  (226) 
-0.0922999978065
-0.0807000026107
-0.069200001657
-0.0696000009775
-0.076700001955
-0.0802000015974
-0.0802000015974
-0.076700001955
0.0322000011802
0.0322000011802
0.0322000011802
0.0388000011444
0.0388000011444
0.0403999984264
0.0403999984264
0.0450999997556
0.041700001806
0.041700001806
0.0395999997854
0.0395999997854
0.0395999997854
0.0395999997854
0.041700001806
0.041700001806

>  <partial_bond_orders>  (226) 
1.0
1.0
1.0
1.0
1.0
1.0
1.0
1.0
1.0
1.0
1.0
1.0
1.0
1.0
1.0
1.0
1.0
1.0
1.0
1.0
1.0
1.0
1.0
1.0

>  <atom_types>  (226) 
c3
c3
c3
c3
c3
c3
c3
c3
hc
hc
hc
hc
hc
hc
hc
hc
hc
hc
hc
hc
hc
hc
hc
hc

>  <target>  (226) 
2.13

>  <cal>  (226) 
2.102

$$$$
mobley_8899867
     RDKit          3D

 16 16  0  0  0  0  0  0  0  0999 V2000
   -0.5070   -1.0670    1.8390 C   0  0  0  0  0  0  0  0  0  0  0  0
    0.3050   -0.0380    1.0510 C   0  0  0  0  0  0  0  0  0  0  0  0
    1.7690   -0.4550    1.1850 C   0  0  0  0  0  0  0  0  0  0  0  0
    1.8080   -1.3100    2.4420 C   0  0  0  0  0  0  0  0  0  0  0  0
    0.4990   -2.0830    2.3730 C   0  0  0  0  0  0  0  0  0  0  0  0
    1.8250   -0.4670    3.5880 O   0  0  0  0  0  0  0  0  0  0  0  0
    0.0000    0.0000    0.0000 H   0  0  0  0  0  0  0  0  0  0  0  0
    0.0000    0.0000    0.0000 H   0  0  0  0  0  0  0  0  0  0  0  0
    0.0000    0.0000    0.0000 H   0  0  0  0  0  0  0  0  0  0  0  0
    0.0000    0.0000    0.0000 H   0  0  0  0  0  0  0  0  0  0  0  0
    0.0000    0.0000    0.0000 H   0  0  0  0  0  0  0  0  0  0  0  0
    0.0000    0.0000    0.0000 H   0  0  0  0  0  0  0  0  0  0  0  0
    0.0000    0.0000    0.0000 H   0  0  0  0  0  0  0  0  0  0  0  0
    0.0000    0.0000    0.0000 H   0  0  0  0  0  0  0  0  0  0  0  0
    0.0000    0.0000    0.0000 H   0  0  0  0  0  0  0  0  0  0  0  0
    0.0000    0.0000    0.0000 H   0  0  0  0  0  0  0  0  0  0  0  0
  1  5  1  0
  1  2  1  0
  2  3  1  0
  3  4  1  0
  4  5  1  0
  4  6  1  0
  1  7  1  0
  1  8  1  0
  2  9  1  0
  2 10  1  0
  3 11  1  0
  3 12  1  0
  4 13  1  0
  5 14  1  0
  5 15  1  0
  6 16  1  0
M  END
>  <partial_charges>  (227) 
-0.0784000009298
-0.0784000009298
-0.0984999984503
0.139599993825
-0.0984999984503
-0.604300022125
0.0428999997675
0.0428999997675
0.0428999997675
0.0428999997675
0.0513999983668
0.0513999983668
0.0421000011265
0.0513999983668
0.0513999983668
0.399399995804

>  <partial_bond_orders>  (227) 
1.0
1.0
1.0
1.0
1.0
1.0
1.0
1.0
1.0
1.0
1.0
1.0
1.0
1.0
1.0
1.0

>  <atom_types>  (227) 
c3
c3
c3
c3
c3
oh
hc
hc
hc
hc
hc
hc
h1
hc
hc
ho

>  <target>  (227) 
-5.49

>  <cal>  (227) 
-4.29

$$$$
mobley_7735340
     RDKit          3D

  9  9  0  0  0  0  0  0  0  0999 V2000
    0.6550   -0.7780   -0.3640 C   0  0  0  0  0  0  0  0  0  0  0  0
    1.9500   -0.7740   -0.8260 C   0  0  0  0  0  0  0  0  0  0  0  0
    2.3540   -2.0370   -1.1810 N   0  0  0  0  0  0  0  0  0  0  0  0
    1.3130   -2.8020   -0.9370 C   0  0  0  0  0  0  0  0  0  0  0  0
    0.2600   -2.0840   -0.4420 N   0  0  0  0  0  0  0  0  0  0  0  0
    0.0000    0.0000    0.0000 H   0  0  0  0  0  0  0  0  0  0  0  0
    0.0000    0.0000    0.0000 H   0  0  0  0  0  0  0  0  0  0  0  0
    0.0000    0.0000    0.0000 H   0  0  0  0  0  0  0  0  0  0  0  0
    0.0000    0.0000    0.0000 H   0  0  0  0  0  0  0  0  0  0  0  0
  1  5  1  0
  1  2  2  0
  2  3  1  0
  3  4  2  0
  4  5  1  0
  1  6  1  0
  2  7  1  0
  4  8  1  0
  5  9  1  0
M  END
>  <partial_charges>  (228) 
-0.26210001111
0.290800005198
-0.665099978447
0.380800008774
-0.32080000639
0.17689999938
0.041400000453
0.0597000010312
0.298400014639

>  <partial_bond_orders>  (228) 
1.0
2.0
1.0
2.0
1.0
1.0
1.0
1.0
1.0

>  <atom_types>  (228) 
cc
cd
nd
cc
na
h4
h4
h5
hn

>  <target>  (228) 
-9.63

>  <cal>  (228) 
-7.972

$$$$
mobley_4463913
     RDKit          3D

 20 19  0  0  0  0  0  0  0  0999 V2000
    1.7140   -3.2990   -2.9810 C   0  0  0  0  0  0  0  0  0  0  0  0
    1.6570   -3.3150   -1.4600 C   0  0  0  0  0  0  0  0  0  0  0  0
    1.3890   -1.9630   -1.0320 O   0  0  0  0  0  0  0  0  0  0  0  0
    1.2990   -1.7610    0.3130 C   0  0  0  0  0  0  0  0  0  0  0  0
    1.4230   -2.6100    1.1850 O   0  0  0  0  0  0  0  0  0  0  0  0
    1.0170   -0.3150    0.5840 C   0  0  0  0  0  0  0  0  0  0  0  0
    2.9240   -3.7760   -0.9490 O   0  0  0  0  0  0  0  0  0  0  0  0
    3.1460   -5.1210   -0.9510 C   0  0  0  0  0  0  0  0  0  0  0  0
    2.3760   -5.9870   -1.3440 O   0  0  0  0  0  0  0  0  0  0  0  0
    4.5060   -5.4020   -0.3890 C   0  0  0  0  0  0  0  0  0  0  0  0
    0.0000    0.0000    0.0000 H   0  0  0  0  0  0  0  0  0  0  0  0
    0.0000    0.0000    0.0000 H   0  0  0  0  0  0  0  0  0  0  0  0
    0.0000    0.0000    0.0000 H   0  0  0  0  0  0  0  0  0  0  0  0
    0.0000    0.0000    0.0000 H   0  0  0  0  0  0  0  0  0  0  0  0
    0.0000    0.0000    0.0000 H   0  0  0  0  0  0  0  0  0  0  0  0
    0.0000    0.0000    0.0000 H   0  0  0  0  0  0  0  0  0  0  0  0
    0.0000    0.0000    0.0000 H   0  0  0  0  0  0  0  0  0  0  0  0
    0.0000    0.0000    0.0000 H   0  0  0  0  0  0  0  0  0  0  0  0
    0.0000    0.0000    0.0000 H   0  0  0  0  0  0  0  0  0  0  0  0
    0.0000    0.0000    0.0000 H   0  0  0  0  0  0  0  0  0  0  0  0
  1  2  1  0
  2  3  1  0
  3  4  1  0
  4  5  2  0
  4  6  1  0
  2  7  1  0
  7  8  1  0
  8  9  2  0
  8 10  1  0
  1 11  1  0
  1 12  1  0
  1 13  1  0
  2 14  1  0
  6 15  1  0
  6 16  1  0
  6 17  1  0
 10 18  1  0
 10 19  1  0
 10 20  1  0
M  END
>  <partial_charges>  (229) 
-0.15379999578
0.366100013256
-0.439999997616
0.646499991417
-0.540799975395
-0.149900004268
-0.439999997616
0.646499991417
-0.540799975395
-0.149900004268
0.0675999969244
0.0675999969244
0.0675999969244
0.0798999965191
0.0790000036359
0.0790000036359
0.0790000036359
0.0790000036359
0.0790000036359
0.0790000036359

>  <partial_bond_orders>  (229) 
1.0
1.0
1.0
2.0
1.0
1.0
1.0
2.0
1.0
1.0
1.0
1.0
1.0
1.0
1.0
1.0
1.0
1.0
1.0

>  <atom_types>  (229) 
c3
c3
os
c
o
c3
os
c
o
c3
hc
hc
hc
h2
hc
hc
hc
hc
hc
hc

>  <target>  (229) 
-4.97

>  <cal>  (229) 
-8.006

$$$$
mobley_1722522
     RDKit          3D

 20 19  0  0  0  0  0  0  0  0999 V2000
   -0.3790   -0.6980    0.7530 C   0  0  0  0  0  0  0  0  0  0  0  0
    0.4050   -0.5790    2.0500 C   0  0  0  0  0  0  0  0  0  0  0  0
    1.8850   -0.8880    1.8410 C   0  0  0  0  0  0  0  0  0  0  0  0
    2.6750   -0.7720    3.1240 C   0  0  0  0  0  0  0  0  0  0  0  0
    2.2100   -0.4690    4.2140 O   0  0  0  0  0  0  0  0  0  0  0  0
    3.9850   -1.0620    2.8650 O   0  0  0  0  0  0  0  0  0  0  0  0
    4.8650   -0.9950    3.9920 C   0  0  0  0  0  0  0  0  0  0  0  0
    6.2610   -1.3410    3.5320 C   0  0  0  0  0  0  0  0  0  0  0  0
    0.0000    0.0000    0.0000 H   0  0  0  0  0  0  0  0  0  0  0  0
    0.0000    0.0000    0.0000 H   0  0  0  0  0  0  0  0  0  0  0  0
    0.0000    0.0000    0.0000 H   0  0  0  0  0  0  0  0  0  0  0  0
    0.0000    0.0000    0.0000 H   0  0  0  0  0  0  0  0  0  0  0  0
    0.0000    0.0000    0.0000 H   0  0  0  0  0  0  0  0  0  0  0  0
    0.0000    0.0000    0.0000 H   0  0  0  0  0  0  0  0  0  0  0  0
    0.0000    0.0000    0.0000 H   0  0  0  0  0  0  0  0  0  0  0  0
    0.0000    0.0000    0.0000 H   0  0  0  0  0  0  0  0  0  0  0  0
    0.0000    0.0000    0.0000 H   0  0  0  0  0  0  0  0  0  0  0  0
    0.0000    0.0000    0.0000 H   0  0  0  0  0  0  0  0  0  0  0  0
    0.0000    0.0000    0.0000 H   0  0  0  0  0  0  0  0  0  0  0  0
    0.0000    0.0000    0.0000 H   0  0  0  0  0  0  0  0  0  0  0  0
  1  2  1  0
  2  3  1  0
  3  4  1  0
  4  5  2  0
  4  6  1  0
  6  7  1  0
  7  8  1  0
  1  9  1  0
  1 10  1  0
  1 11  1  0
  2 12  1  0
  2 13  1  0
  3 14  1  0
  3 15  1  0
  7 16  1  0
  7 17  1  0
  8 18  1  0
  8 19  1  0
  8 20  1  0
M  END
>  <partial_charges>  (230) 
-0.0998999997973
-0.0755999982357
-0.126599997282
0.633199989796
-0.544799983501
-0.446299999952
0.139300003648
-0.100400000811
0.0392000004649
0.0392000004649
0.0392000004649
0.0538000017405
0.0538000017405
0.0762000009418
0.0762000009418
0.0507000014186
0.0507000014186
0.0474000014365
0.0474000014365
0.0474000014365

>  <partial_bond_orders>  (230) 
1.0
1.0
1.0
2.0
1.0
1.0
1.0
1.0
1.0
1.0
1.0
1.0
1.0
1.0
1.0
1.0
1.0
1.0
1.0

>  <atom_types>  (230) 
c3
c3
c3
c
o
os
c3
c3
hc
hc
hc
hc
hc
hc
hc
h1
h1
hc
hc
hc

>  <target>  (230) 
-2.49

>  <cal>  (230) 
-3.381

$$$$
mobley_8754702
     RDKit          3D

 14 13  0  0  0  0  0  0  0  0999 V2000
   -0.0040   -0.6640    0.8700 C   0  0  0  0  0  0  0  0  0  0  0  0
    1.2440   -0.4430    1.7060 C   0  0  0  0  0  0  0  0  0  0  0  0
    1.2750   -1.3490    2.9270 C   0  0  0  0  0  0  0  0  0  0  0  0
    2.4640   -1.0910    3.6610 O   0  0  0  0  0  0  0  0  0  0  0  0
    2.6330   -1.8330    4.7910 C   0  0  0  0  0  0  0  0  0  0  0  0
    1.8810   -2.6860    5.2350 O   0  0  0  0  0  0  0  0  0  0  0  0
    0.0000    0.0000    0.0000 H   0  0  0  0  0  0  0  0  0  0  0  0
    0.0000    0.0000    0.0000 H   0  0  0  0  0  0  0  0  0  0  0  0
    0.0000    0.0000    0.0000 H   0  0  0  0  0  0  0  0  0  0  0  0
    0.0000    0.0000    0.0000 H   0  0  0  0  0  0  0  0  0  0  0  0
    0.0000    0.0000    0.0000 H   0  0  0  0  0  0  0  0  0  0  0  0
    0.0000    0.0000    0.0000 H   0  0  0  0  0  0  0  0  0  0  0  0
    0.0000    0.0000    0.0000 H   0  0  0  0  0  0  0  0  0  0  0  0
    0.0000    0.0000    0.0000 H   0  0  0  0  0  0  0  0  0  0  0  0
  1  2  1  0
  2  3  1  0
  3  4  1  0
  4  5  1  0
  5  6  2  0
  1  7  1  0
  1  8  1  0
  1  9  1  0
  2 10  1  0
  2 11  1  0
  3 12  1  0
  3 13  1  0
  5 14  1  0
M  END
>  <partial_charges>  (231) 
-0.0961000025272
-0.103000000119
0.130999997258
-0.448300004005
0.631900012493
-0.541000008583
0.0395000018179
0.0395000018179
0.0395000018179
0.0504000000656
0.0504000000656
0.0641999989748
0.0641999989748
0.0777999982238

>  <partial_bond_orders>  (231) 
1.0
1.0
1.0
1.0
2.0
1.0
1.0
1.0
1.0
1.0
1.0
1.0
1.0

>  <atom_types>  (231) 
c3
c3
c3
os
c
o
hc
hc
hc
hc
hc
h1
h1
h5

>  <target>  (231) 
-2.48

>  <cal>  (231) 
-3.699

$$$$
mobley_5346580
     RDKit          3D

 19 18  0  0  0  0  0  0  0  0999 V2000
   -0.6290   -0.3790   -0.5370 C   0  0  0  0  0  0  0  0  0  0  0  0
   -1.9540   -0.8990   -0.0330 C   0  0  0  0  0  0  0  0  0  0  0  0
   -2.8920   -1.0440   -0.8210 O   0  0  0  0  0  0  0  0  0  0  0  0
   -2.0980   -1.2120    1.4690 C   0  0  0  0  0  0  0  0  0  0  0  0
   -1.8400    0.0710    2.2690 C   0  0  0  0  0  0  0  0  0  0  0  0
   -1.1120   -2.3070    1.8940 C   0  0  0  0  0  0  0  0  0  0  0  0
   -3.5280   -1.7020    1.7550 C   0  0  0  0  0  0  0  0  0  0  0  0
    0.0000    0.0000    0.0000 H   0  0  0  0  0  0  0  0  0  0  0  0
    0.0000    0.0000    0.0000 H   0  0  0  0  0  0  0  0  0  0  0  0
    0.0000    0.0000    0.0000 H   0  0  0  0  0  0  0  0  0  0  0  0
    0.0000    0.0000    0.0000 H   0  0  0  0  0  0  0  0  0  0  0  0
    0.0000    0.0000    0.0000 H   0  0  0  0  0  0  0  0  0  0  0  0
    0.0000    0.0000    0.0000 H   0  0  0  0  0  0  0  0  0  0  0  0
    0.0000    0.0000    0.0000 H   0  0  0  0  0  0  0  0  0  0  0  0
    0.0000    0.0000    0.0000 H   0  0  0  0  0  0  0  0  0  0  0  0
    0.0000    0.0000    0.0000 H   0  0  0  0  0  0  0  0  0  0  0  0
    0.0000    0.0000    0.0000 H   0  0  0  0  0  0  0  0  0  0  0  0
    0.0000    0.0000    0.0000 H   0  0  0  0  0  0  0  0  0  0  0  0
    0.0000    0.0000    0.0000 H   0  0  0  0  0  0  0  0  0  0  0  0
  1  2  1  0
  2  3  2  0
  2  4  1  0
  4  5  1  0
  4  6  1  0
  4  7  1  0
  1  8  1  0
  1  9  1  0
  1 10  1  0
  5 11  1  0
  5 12  1  0
  5 13  1  0
  6 14  1  0
  6 15  1  0
  6 16  1  0
  7 17  1  0
  7 18  1  0
  7 19  1  0
M  END
>  <partial_charges>  (232) 
-0.197200000286
0.569199979305
-0.534300029278
-0.148599997163
-0.0838999971747
-0.0838999971747
-0.0838999971747
0.063299998641
0.063299998641
0.063299998641
0.041400000453
0.041400000453
0.041400000453
0.041400000453
0.041400000453
0.041400000453
0.041400000453
0.041400000453
0.041400000453

>  <partial_bond_orders>  (232) 
1.0
2.0
1.0
1.0
1.0
1.0
1.0
1.0
1.0
1.0
1.0
1.0
1.0
1.0
1.0
1.0
1.0
1.0

>  <atom_types>  (232) 
c3
c
o
c3
c3
c3
c3
hc
hc
hc
hc
hc
hc
hc
hc
hc
hc
hc
hc

>  <target>  (232) 
-3.11

>  <cal>  (232) 
-3.234

$$$$
mobley_5076071
     RDKit          3D

 35 35  0  0  0  0  0  0  0  0999 V2000
    3.6920   -0.3910   -3.0850 C   0  0  0  0  0  0  0  0  0  0  0  0
    2.5600    0.0880   -2.2420 C   0  0  0  0  0  0  0  0  0  0  0  0
    1.9320   -1.0160   -1.5280 N   0  0  0  0  0  0  0  0  0  0  0  0
    1.3650   -2.1060   -2.3120 C   0  0  0  0  0  0  0  0  0  0  0  0
    0.2920   -1.6000   -3.2030 C   0  0  0  0  0  0  0  0  0  0  0  0
    1.8850   -1.0360   -0.1120 C   0  0  0  0  0  0  0  0  0  0  0  0
    2.9210   -1.6310    0.6080 C   0  0  0  0  0  0  0  0  0  0  0  0
    2.8780   -1.6520    2.0020 C   0  0  0  0  0  0  0  0  0  0  0  0
    1.8000   -1.0790    2.6760 C   0  0  0  0  0  0  0  0  0  0  0  0
    0.7640   -0.4840    1.9550 C   0  0  0  0  0  0  0  0  0  0  0  0
    0.8070   -0.4630    0.5610 C   0  0  0  0  0  0  0  0  0  0  0  0
   -0.2540    0.1450   -0.1760 N   0  0  0  0  0  0  0  0  0  0  0  0
   -0.1700    1.3620   -0.4560 O   0  0  0  0  0  0  0  0  0  0  0  0
   -1.2300   -0.5600   -0.5170 O   0  0  0  0  0  0  0  0  0  0  0  0
   -0.3270    0.0940    2.6480 N   0  0  0  0  0  0  0  0  0  0  0  0
    1.7820   -1.1170    4.1700 C   0  0  0  0  0  0  0  0  0  0  0  0
    2.8720   -1.7350    4.7110 F   0  0  0  0  0  0  0  0  0  0  0  0
    1.7490    0.1200    4.7450 F   0  0  0  0  0  0  0  0  0  0  0  0
    0.6990   -1.7820    4.6620 F   0  0  0  0  0  0  0  0  0  0  0  0
    4.0350   -2.2240   -0.0510 N   0  0  0  0  0  0  0  0  0  0  0  0
    5.0380   -1.5150   -0.3000 O   0  0  0  0  0  0  0  0  0  0  0  0
    3.9780   -3.4370   -0.3610 O   0  0  0  0  0  0  0  0  0  0  0  0
    0.0000    0.0000    0.0000 H   0  0  0  0  0  0  0  0  0  0  0  0
    0.0000    0.0000    0.0000 H   0  0  0  0  0  0  0  0  0  0  0  0
    0.0000    0.0000    0.0000 H   0  0  0  0  0  0  0  0  0  0  0  0
    0.0000    0.0000    0.0000 H   0  0  0  0  0  0  0  0  0  0  0  0
    0.0000    0.0000    0.0000 H   0  0  0  0  0  0  0  0  0  0  0  0
    0.0000    0.0000    0.0000 H   0  0  0  0  0  0  0  0  0  0  0  0
    0.0000    0.0000    0.0000 H   0  0  0  0  0  0  0  0  0  0  0  0
    0.0000    0.0000    0.0000 H   0  0  0  0  0  0  0  0  0  0  0  0
    0.0000    0.0000    0.0000 H   0  0  0  0  0  0  0  0  0  0  0  0
    0.0000    0.0000    0.0000 H   0  0  0  0  0  0  0  0  0  0  0  0
    0.0000    0.0000    0.0000 H   0  0  0  0  0  0  0  0  0  0  0  0
    0.0000    0.0000    0.0000 H   0  0  0  0  0  0  0  0  0  0  0  0
    0.0000    0.0000    0.0000 H   0  0  0  0  0  0  0  0  0  0  0  0
  1  2  1  0
  2  3  1  0
  3  4  1  0
  4  5  1  0
  3  6  1  0
  6 11  2  0
  6  7  1  0
  7  8  2  0
  8  9  1  0
  9 10  2  0
 10 11  1  0
 11 12  1  0
 12 13  1  0
 12 14  1  0
 10 15  1  0
  9 16  1  0
 16 17  1  0
 16 18  1  0
 16 19  1  0
  7 20  1  0
 20 21  1  0
 20 22  1  0
  1 23  1  0
  1 24  1  0
  1 25  1  0
  2 26  1  0
  2 27  1  0
  4 28  1  0
  4 29  1  0
  5 30  1  0
  5 31  1  0
  5 32  1  0
  8 33  1  0
 15 34  1  0
 15 35  1  0
M  CHG  4  13  -1  14  -1  21  -1  22  -1
M  END
>  <partial_charges>  (233) 
-0.123999997973
0.239800006151
-0.799399971962
0.239800006151
-0.123999997973
0.357300013304
-0.245800003409
0.0386000014842
-0.277700006962
0.327899992466
-0.281399995089
0.319200009108
-0.187800005078
-0.187800005078
-0.84969997406
0.698199987411
-0.231299996376
-0.231299996376
-0.231299996376
0.327199995518
-0.187700003386
-0.187700003386
0.0487999990582
0.0487999990582
0.0487999990582
0.0522000007331
0.0522000007331
0.0522000007331
0.0522000007331
0.0487999990582
0.0487999990582
0.0487999990582
0.180399999022
0.458200007677
0.458200007677

>  <partial_bond_orders>  (233) 
1.0
1.0
1.0
1.0
1.0
2.0
1.0
2.0
1.0
2.0
1.0
1.0
1.0
1.0
1.0
1.0
1.0
1.0
1.0
1.0
1.0
1.0
1.0
1.0
1.0
1.0
1.0
1.0
1.0
1.0
1.0
1.0
1.0
1.0
1.0

>  <atom_types>  (233) 
c3
c3
nh
c3
c3
ca
ca
ca
ca
ca
ca
no
o
o
nh
c3
f
f
f
no
o
o
hc
hc
hc
h1
h1
h1
h1
hc
hc
hc
ha
hn
hn

>  <target>  (233) 
-5.66

>  <cal>  (233) 
-7.503

$$$$
mobley_3269565
     RDKit          3D

 15 14  0  0  0  0  0  0  0  0999 V2000
    1.0770    0.0500    0.1960 C   0  0  0  0  0  0  0  0  0  0  0  0
    1.3530    0.9190    1.4130 C   0  0  0  0  0  0  0  0  0  0  0  0
    2.8430    1.0380    1.6980 C   0  0  0  0  0  0  0  0  0  0  0  0
    0.8120    2.2180    1.1940 O   0  0  0  0  0  0  0  0  0  0  0  0
   -0.5870    2.2450    1.4350 C   0  0  0  0  0  0  0  0  0  0  0  0
    0.0000    0.0000    0.0000 H   0  0  0  0  0  0  0  0  0  0  0  0
    0.0000    0.0000    0.0000 H   0  0  0  0  0  0  0  0  0  0  0  0
    0.0000    0.0000    0.0000 H   0  0  0  0  0  0  0  0  0  0  0  0
    0.0000    0.0000    0.0000 H   0  0  0  0  0  0  0  0  0  0  0  0
    0.0000    0.0000    0.0000 H   0  0  0  0  0  0  0  0  0  0  0  0
    0.0000    0.0000    0.0000 H   0  0  0  0  0  0  0  0  0  0  0  0
    0.0000    0.0000    0.0000 H   0  0  0  0  0  0  0  0  0  0  0  0
    0.0000    0.0000    0.0000 H   0  0  0  0  0  0  0  0  0  0  0  0
    0.0000    0.0000    0.0000 H   0  0  0  0  0  0  0  0  0  0  0  0
    0.0000    0.0000    0.0000 H   0  0  0  0  0  0  0  0  0  0  0  0
  1  2  1  0
  2  3  1  0
  2  4  1  0
  4  5  1  0
  1  6  1  0
  1  7  1  0
  1  8  1  0
  2  9  1  0
  3 10  1  0
  3 11  1  0
  3 12  1  0
  5 13  1  0
  5 14  1  0
  5 15  1  0
M  END
>  <partial_charges>  (234) 
-0.10719999671
0.135199993849
-0.10719999671
-0.416599988937
0.11590000242
0.0428999997675
0.0428999997675
0.0428999997675
0.0282000005245
0.0428999997675
0.0428999997675
0.0428999997675
0.0313000008464
0.0313000008464
0.0313000008464

>  <partial_bond_orders>  (234) 
1.0
1.0
1.0
1.0
1.0
1.0
1.0
1.0
1.0
1.0
1.0
1.0
1.0
1.0

>  <atom_types>  (234) 
c3
c3
c3
os
c3
hc
hc
hc
h1
hc
hc
hc
h1
h1
h1

>  <target>  (234) 
-2.01

>  <cal>  (234) 
-0.657

$$$$
mobley_4291494
     RDKit          3D

 11 11  0  0  0  0  0  0  0  0999 V2000
    1.3880   -0.0680    1.6520 C   0  0  0  0  0  0  0  0  0  0  0  0
    0.2270   -0.4200    0.9730 C   0  0  0  0  0  0  0  0  0  0  0  0
   -0.6320   -1.3220    1.5800 C   0  0  0  0  0  0  0  0  0  0  0  0
   -0.4090   -1.8820    2.7910 N   0  0  0  0  0  0  0  0  0  0  0  0
    0.7300   -1.5160    3.4210 C   0  0  0  0  0  0  0  0  0  0  0  0
    1.6520   -0.6230    2.9000 C   0  0  0  0  0  0  0  0  0  0  0  0
    0.9730   -2.2490    4.9530 Cl  0  0  0  0  0  0  0  0  0  0  0  0
    0.0000    0.0000    0.0000 H   0  0  0  0  0  0  0  0  0  0  0  0
    0.0000    0.0000    0.0000 H   0  0  0  0  0  0  0  0  0  0  0  0
    0.0000    0.0000    0.0000 H   0  0  0  0  0  0  0  0  0  0  0  0
    0.0000    0.0000    0.0000 H   0  0  0  0  0  0  0  0  0  0  0  0
  1  6  2  0
  1  2  1  0
  2  3  2  0
  3  4  1  0
  4  5  2  0
  5  6  1  0
  5  7  1  0
  1  8  1  0
  2  9  1  0
  3 10  1  0
  6 11  1  0
M  END
>  <partial_charges>  (235) 
-0.0869999974966
-0.24660000205
0.407700002193
-0.6549000144
0.489300012589
-0.235200002789
-0.15189999342
0.14280000329
0.148900002241
0.0294000003487
0.157499998808

>  <partial_bond_orders>  (235) 
2.0
1.0
2.0
1.0
2.0
1.0
1.0
1.0
1.0
1.0
1.0

>  <atom_types>  (235) 
ca
ca
ca
nb
ca
ca
cl
ha
ha
h4
ha

>  <target>  (235) 
-4.39

>  <cal>  (235) 
-3.873

$$$$
mobley_2295058
     RDKit          3D

 19 19  0  0  0  0  0  0  0  0999 V2000
    0.5840   -1.0130   -3.5060 C   0  0  0  0  0  0  0  0  0  0  0  0
    0.6720   -1.0310   -2.0780 O   0  0  0  0  0  0  0  0  0  0  0  0
    1.9290   -1.0140   -1.5660 C   0  0  0  0  0  0  0  0  0  0  0  0
    2.9700   -0.9850   -2.2040 O   0  0  0  0  0  0  0  0  0  0  0  0
    1.8850   -1.0360   -0.1120 C   0  0  0  0  0  0  0  0  0  0  0  0
    2.9210   -1.6310    0.6080 C   0  0  0  0  0  0  0  0  0  0  0  0
    2.8780   -1.6520    2.0020 C   0  0  0  0  0  0  0  0  0  0  0  0
    1.8000   -1.0790    2.6760 C   0  0  0  0  0  0  0  0  0  0  0  0
    0.7640   -0.4840    1.9550 C   0  0  0  0  0  0  0  0  0  0  0  0
    0.8070   -0.4630    0.5610 C   0  0  0  0  0  0  0  0  0  0  0  0
    1.7570   -1.0990    4.0360 O   0  0  0  0  0  0  0  0  0  0  0  0
    0.0000    0.0000    0.0000 H   0  0  0  0  0  0  0  0  0  0  0  0
    0.0000    0.0000    0.0000 H   0  0  0  0  0  0  0  0  0  0  0  0
    0.0000    0.0000    0.0000 H   0  0  0  0  0  0  0  0  0  0  0  0
    0.0000    0.0000    0.0000 H   0  0  0  0  0  0  0  0  0  0  0  0
    0.0000    0.0000    0.0000 H   0  0  0  0  0  0  0  0  0  0  0  0
    0.0000    0.0000    0.0000 H   0  0  0  0  0  0  0  0  0  0  0  0
    0.0000    0.0000    0.0000 H   0  0  0  0  0  0  0  0  0  0  0  0
    0.0000    0.0000    0.0000 H   0  0  0  0  0  0  0  0  0  0  0  0
  1  2  1  0
  2  3  1  0
  3  4  2  0
  3  5  1  0
  5 10  2  0
  5  6  1  0
  6  7  2  0
  7  8  1  0
  8  9  2  0
  9 10  1  0
  8 11  1  0
  1 12  1  0
  1 13  1  0
  1 14  1  0
  6 15  1  0
  7 16  1  0
  9 17  1  0
 10 18  1  0
 11 19  1  0
M  END
>  <partial_charges>  (236) 
0.126200005412
-0.44010001421
0.650600016117
-0.539099991322
-0.170399993658
-0.0362000018358
-0.202000007033
0.155900001526
-0.202000007033
-0.0362000018358
-0.491100013256
0.0498999990523
0.0498999990523
0.0498999990523
0.155599996448
0.149499997497
0.149499997497
0.155599996448
0.42429998517

>  <partial_bond_orders>  (236) 
1.0
1.0
2.0
1.0
2.0
1.0
2.0
1.0
2.0
1.0
1.0
1.0
1.0
1.0
1.0
1.0
1.0
1.0
1.0

>  <atom_types>  (236) 
c3
os
c
o
ca
ca
ca
ca
ca
ca
oh
h1
h1
h1
ha
ha
ha
ha
ho

>  <target>  (236) 
-9.51

>  <cal>  (236) 
-9.785

$$$$
mobley_6739648
     RDKit          3D

 14 14  0  0  0  0  0  0  0  0999 V2000
   -0.1050   -0.7300   -1.1900 C   0  0  0  0  0  0  0  0  0  0  0  0
    0.8880    0.4050   -1.0040 C   0  0  0  0  0  0  0  0  0  0  0  0
    0.3670    1.3530   -0.0700 O   0  0  0  0  0  0  0  0  0  0  0  0
    0.1050    0.7300    1.1900 C   0  0  0  0  0  0  0  0  0  0  0  0
   -0.8880   -0.4050    1.0040 C   0  0  0  0  0  0  0  0  0  0  0  0
   -0.3670   -1.3530    0.0700 O   0  0  0  0  0  0  0  0  0  0  0  0
    0.0000    0.0000    0.0000 H   0  0  0  0  0  0  0  0  0  0  0  0
    0.0000    0.0000    0.0000 H   0  0  0  0  0  0  0  0  0  0  0  0
    0.0000    0.0000    0.0000 H   0  0  0  0  0  0  0  0  0  0  0  0
    0.0000    0.0000    0.0000 H   0  0  0  0  0  0  0  0  0  0  0  0
    0.0000    0.0000    0.0000 H   0  0  0  0  0  0  0  0  0  0  0  0
    0.0000    0.0000    0.0000 H   0  0  0  0  0  0  0  0  0  0  0  0
    0.0000    0.0000    0.0000 H   0  0  0  0  0  0  0  0  0  0  0  0
    0.0000    0.0000    0.0000 H   0  0  0  0  0  0  0  0  0  0  0  0
  1  6  1  0
  1  2  1  0
  2  3  1  0
  3  4  1  0
  4  5  1  0
  5  6  1  0
  1  7  1  0
  1  8  1  0
  2  9  1  0
  2 10  1  0
  4 11  1  0
  4 12  1  0
  5 13  1  0
  5 14  1  0
M  END
>  <partial_charges>  (237) 
0.0907000005245
0.0908000022173
-0.412000000477
0.0908000022173
0.0908000022173
-0.412000000477
0.0575999990106
0.0575999990106
0.0575999990106
0.0575999990106
0.0575999990106
0.0575999990106
0.0575999990106
0.0575999990106

>  <partial_bond_orders>  (237) 
1.0
1.0
1.0
1.0
1.0
1.0
1.0
1.0
1.0
1.0
1.0
1.0
1.0
1.0

>  <atom_types>  (237) 
c3
c3
os
c3
c3
os
h1
h1
h1
h1
h1
h1
h1
h1

>  <target>  (237) 
-5.06

>  <cal>  (237) 
-4.269

$$$$
mobley_9073553
     RDKit          3D

  9  8  0  0  0  0  0  0  0  0999 V2000
    0.9860   -0.3290    0.3400 C   0  0  0  0  0  0  0  0  0  0  0  0
    1.2240    0.1820    2.0580 S   0  0  0  0  0  0  0  0  0  0  0  0
    2.8850   -0.4870    2.3100 C   0  0  0  0  0  0  0  0  0  0  0  0
    0.0000    0.0000    0.0000 H   0  0  0  0  0  0  0  0  0  0  0  0
    0.0000    0.0000    0.0000 H   0  0  0  0  0  0  0  0  0  0  0  0
    0.0000    0.0000    0.0000 H   0  0  0  0  0  0  0  0  0  0  0  0
    0.0000    0.0000    0.0000 H   0  0  0  0  0  0  0  0  0  0  0  0
    0.0000    0.0000    0.0000 H   0  0  0  0  0  0  0  0  0  0  0  0
    0.0000    0.0000    0.0000 H   0  0  0  0  0  0  0  0  0  0  0  0
  1  2  1  0
  2  3  1  0
  1  4  1  0
  1  5  1  0
  1  6  1  0
  3  7  1  0
  3  8  1  0
  3  9  1  0
M  END
>  <partial_charges>  (238) 
-0.0465000011027
-0.27689999342
-0.0465000011027
0.061700001359
0.061700001359
0.061700001359
0.061700001359
0.061700001359
0.061700001359

>  <partial_bond_orders>  (238) 
1.0
1.0
1.0
1.0
1.0
1.0
1.0
1.0

>  <atom_types>  (238) 
c3
ss
c3
h1
h1
h1
h1
h1
h1

>  <target>  (238) 
-1.61

>  <cal>  (238) 
0.44

$$$$
mobley_6981465
     RDKit          3D

 17 16  0  0  0  0  0  0  0  0999 V2000
    1.0770    0.0500    0.1960 C   0  0  0  0  0  0  0  0  0  0  0  0
    1.3530    0.9190    1.4130 C   0  0  0  0  0  0  0  0  0  0  0  0
    2.8430    1.0380    1.6980 C   0  0  0  0  0  0  0  0  0  0  0  0
    0.8120    2.2180    1.1940 O   0  0  0  0  0  0  0  0  0  0  0  0
    0.3750    2.8740    2.3100 C   0  0  0  0  0  0  0  0  0  0  0  0
    0.4070    2.4480    3.4570 O   0  0  0  0  0  0  0  0  0  0  0  0
   -0.1640    4.2200    1.9290 C   0  0  0  0  0  0  0  0  0  0  0  0
    0.0000    0.0000    0.0000 H   0  0  0  0  0  0  0  0  0  0  0  0
    0.0000    0.0000    0.0000 H   0  0  0  0  0  0  0  0  0  0  0  0
    0.0000    0.0000    0.0000 H   0  0  0  0  0  0  0  0  0  0  0  0
    0.0000    0.0000    0.0000 H   0  0  0  0  0  0  0  0  0  0  0  0
    0.0000    0.0000    0.0000 H   0  0  0  0  0  0  0  0  0  0  0  0
    0.0000    0.0000    0.0000 H   0  0  0  0  0  0  0  0  0  0  0  0
    0.0000    0.0000    0.0000 H   0  0  0  0  0  0  0  0  0  0  0  0
    0.0000    0.0000    0.0000 H   0  0  0  0  0  0  0  0  0  0  0  0
    0.0000    0.0000    0.0000 H   0  0  0  0  0  0  0  0  0  0  0  0
    0.0000    0.0000    0.0000 H   0  0  0  0  0  0  0  0  0  0  0  0
  1  2  1  0
  2  3  1  0
  2  4  1  0
  4  5  1  0
  5  6  2  0
  5  7  1  0
  1  8  1  0
  1  9  1  0
  1 10  1  0
  2 11  1  0
  3 12  1  0
  3 13  1  0
  3 14  1  0
  7 15  1  0
  7 16  1  0
  7 17  1  0
M  END
>  <partial_charges>  (239) 
-0.106200002134
0.138199999928
-0.106200002134
-0.438899993896
0.633400022984
-0.543600022793
-0.150999993086
0.0461999997497
0.0461999997497
0.0461999997497
0.069399997592
0.0461999997497
0.0461999997497
0.0461999997497
0.075900003314
0.075900003314
0.075900003314

>  <partial_bond_orders>  (239) 
1.0
1.0
1.0
1.0
2.0
1.0
1.0
1.0
1.0
1.0
1.0
1.0
1.0
1.0
1.0
1.0

>  <atom_types>  (239) 
c3
c3
c3
os
c
o
c3
hc
hc
hc
h1
hc
hc
hc
hc
hc
hc

>  <target>  (239) 
-2.64

>  <cal>  (239) 
-3.371

$$$$
mobley_852937
     RDKit          3D

 13 13  0  0  0  0  0  0  0  0999 V2000
    1.8850   -1.0360   -0.1120 C   0  0  0  0  0  0  0  0  0  0  0  0
    2.9210   -1.6310    0.6080 C   0  0  0  0  0  0  0  0  0  0  0  0
    2.8780   -1.6520    2.0020 C   0  0  0  0  0  0  0  0  0  0  0  0
    1.8000   -1.0790    2.6760 C   0  0  0  0  0  0  0  0  0  0  0  0
    0.7640   -0.4840    1.9550 C   0  0  0  0  0  0  0  0  0  0  0  0
    0.8070   -0.4630    0.5610 C   0  0  0  0  0  0  0  0  0  0  0  0
   -0.2050    0.1170   -0.1410 O   0  0  0  0  0  0  0  0  0  0  0  0
    3.8730   -2.2230    2.6940 F   0  0  0  0  0  0  0  0  0  0  0  0
    0.0000    0.0000    0.0000 H   0  0  0  0  0  0  0  0  0  0  0  0
    0.0000    0.0000    0.0000 H   0  0  0  0  0  0  0  0  0  0  0  0
    0.0000    0.0000    0.0000 H   0  0  0  0  0  0  0  0  0  0  0  0
    0.0000    0.0000    0.0000 H   0  0  0  0  0  0  0  0  0  0  0  0
    0.0000    0.0000    0.0000 H   0  0  0  0  0  0  0  0  0  0  0  0
  1  6  2  0
  1  2  1  0
  2  3  2  0
  3  4  1  0
  4  5  2  0
  5  6  1  0
  6  7  1  0
  3  8  1  0
  1  9  1  0
  2 10  1  0
  4 11  1  0
  5 12  1  0
  7 13  1  0
M  END
>  <partial_charges>  (240) 
-0.161799997091
-0.128499999642
0.0883999988437
-0.128499999642
-0.161799997091
0.111000001431
-0.494199991226
-0.141499996185
0.147699996829
0.15039999783
0.15039999783
0.147699996829
0.420899987221

>  <partial_bond_orders>  (240) 
2.0
1.0
2.0
1.0
2.0
1.0
1.0
1.0
1.0
1.0
1.0
1.0
1.0

>  <atom_types>  (240) 
ca
ca
ca
ca
ca
ca
oh
f
ha
ha
ha
ha
ho

>  <target>  (240) 
-6.19

>  <cal>  (240) 
-4.955

$$$$
mobley_8011706
     RDKit          3D

 12 11  0  0  0  0  0  0  0  0999 V2000
    0.9690   -0.0550   -0.5590 C   0  0  0  0  0  0  0  0  0  0  0  0
    1.5480   -1.3610   -0.2930 N   0  0  0  0  0  0  0  0  0  0  0  0
    0.7830   -2.5560   -0.6070 C   0  0  0  0  0  0  0  0  0  0  0  0
    2.8170   -1.4420    0.2540 C   0  0  0  0  0  0  0  0  0  0  0  0
    3.5580   -0.5150    0.5610 O   0  0  0  0  0  0  0  0  0  0  0  0
    0.0000    0.0000    0.0000 H   0  0  0  0  0  0  0  0  0  0  0  0
    0.0000    0.0000    0.0000 H   0  0  0  0  0  0  0  0  0  0  0  0
    0.0000    0.0000    0.0000 H   0  0  0  0  0  0  0  0  0  0  0  0
    0.0000    0.0000    0.0000 H   0  0  0  0  0  0  0  0  0  0  0  0
    0.0000    0.0000    0.0000 H   0  0  0  0  0  0  0  0  0  0  0  0
    0.0000    0.0000    0.0000 H   0  0  0  0  0  0  0  0  0  0  0  0
    0.0000    0.0000    0.0000 H   0  0  0  0  0  0  0  0  0  0  0  0
  1  2  1  0
  2  3  1  0
  2  4  1  0
  4  5  2  0
  1  6  1  0
  1  7  1  0
  1  8  1  0
  3  9  1  0
  3 10  1  0
  3 11  1  0
  4 12  1  0
M  END
>  <partial_charges>  (241) 
0.0826999992132
-0.497599989176
0.0826999992132
0.657800018787
-0.601599991322
0.041400000453
0.041400000453
0.041400000453
0.041400000453
0.041400000453
0.041400000453
0.0274000000209

>  <partial_bond_orders>  (241) 
1.0
1.0
1.0
2.0
1.0
1.0
1.0
1.0
1.0
1.0
1.0

>  <atom_types>  (241) 
c3
n
c3
c
o
h1
h1
h1
h1
h1
h1
h5

>  <target>  (241) 
-7.81

>  <cal>  (241) 
-6.932

$$$$
mobley_3370989
     RDKit          3D

  8  7  0  0  0  0  0  0  0  0999 V2000
    0.0490   -0.0310   -0.7740 C   0  0  0  0  0  0  0  0  0  0  0  0
   -0.0860    0.1060    0.7210 C   0  0  0  0  0  0  0  0  0  0  0  0
    1.1430    0.0600    1.2920 F   0  0  0  0  0  0  0  0  0  0  0  0
   -0.7870   -0.9450    1.2120 F   0  0  0  0  0  0  0  0  0  0  0  0
    0.0000    0.0000    0.0000 H   0  0  0  0  0  0  0  0  0  0  0  0
    0.0000    0.0000    0.0000 H   0  0  0  0  0  0  0  0  0  0  0  0
    0.0000    0.0000    0.0000 H   0  0  0  0  0  0  0  0  0  0  0  0
    0.0000    0.0000    0.0000 H   0  0  0  0  0  0  0  0  0  0  0  0
  1  2  1  0
  2  3  1  0
  2  4  1  0
  1  5  1  0
  1  6  1  0
  1  7  1  0
  2  8  1  0
M  END
>  <partial_charges>  (242) 
-0.152199998498
0.398699998856
-0.249400004745
-0.249400004745
0.0636000037193
0.0636000037193
0.0636000037193
0.0615999996662

>  <partial_bond_orders>  (242) 
1.0
1.0
1.0
1.0
1.0
1.0
1.0

>  <atom_types>  (242) 
c3
c3
f
f
hc
hc
hc
h2

>  <target>  (242) 
-0.11

>  <cal>  (242) 
0.226

$$$$
mobley_6232400
     RDKit          3D

 13 13  0  0  0  0  0  0  0  0999 V2000
    1.6520   -0.6230    2.9000 C   0  0  0  0  0  0  0  0  0  0  0  0
    1.3880   -0.0680    1.6520 C   0  0  0  0  0  0  0  0  0  0  0  0
    0.2270   -0.4200    0.9730 C   0  0  0  0  0  0  0  0  0  0  0  0
   -0.6320   -1.3220    1.5800 C   0  0  0  0  0  0  0  0  0  0  0  0
   -0.4090   -1.8820    2.7910 N   0  0  0  0  0  0  0  0  0  0  0  0
    0.7300   -1.5160    3.4210 C   0  0  0  0  0  0  0  0  0  0  0  0
   -0.0770    0.1410   -0.3320 C   0  0  0  0  0  0  0  0  0  0  0  0
    0.6600    0.9470   -0.9090 O   0  0  0  0  0  0  0  0  0  0  0  0
    0.0000    0.0000    0.0000 H   0  0  0  0  0  0  0  0  0  0  0  0
    0.0000    0.0000    0.0000 H   0  0  0  0  0  0  0  0  0  0  0  0
    0.0000    0.0000    0.0000 H   0  0  0  0  0  0  0  0  0  0  0  0
    0.0000    0.0000    0.0000 H   0  0  0  0  0  0  0  0  0  0  0  0
    0.0000    0.0000    0.0000 H   0  0  0  0  0  0  0  0  0  0  0  0
  1  6  2  0
  1  2  1  0
  2  3  2  0
  3  4  1  0
  4  5  2  0
  5  6  1  0
  3  7  1  0
  7  8  2  0
  1  9  1  0
  2 10  1  0
  4 11  1  0
  6 12  1  0
  7 13  1  0
M  END
>  <partial_charges>  (243) 
-0.259400010109
-0.0375000014901
-0.315800011158
0.438400000334
-0.673799991608
0.422600001097
0.582400023937
-0.523899972439
0.151399999857
0.159999996424
0.0252000000328
0.0270000007004
0.00340000004508

>  <partial_bond_orders>  (243) 
2.0
1.0
2.0
1.0
2.0
1.0
1.0
2.0
1.0
1.0
1.0
1.0
1.0

>  <atom_types>  (243) 
ca
ca
ca
ca
nb
ca
c
o
ha
ha
h4
h4
h4

>  <target>  (243) 
-7.1

>  <cal>  (243) 
-7.425

$$$$
mobley_1659169
     RDKit          3D

 15 15  0  0  0  0  0  0  0  0999 V2000
    0.1790   -0.1830    1.3920 C   0  0  0  0  0  0  0  0  0  0  0  0
   -0.4220    1.0830    0.7930 C   0  0  0  0  0  0  0  0  0  0  0  0
    0.1020    1.3090   -0.5170 O   0  0  0  0  0  0  0  0  0  0  0  0
   -0.1900    0.2070   -1.3790 C   0  0  0  0  0  0  0  0  0  0  0  0
    0.4160   -1.0750   -0.8210 C   0  0  0  0  0  0  0  0  0  0  0  0
   -0.0850   -1.3410    0.5320 N   0  0  0  0  0  0  0  0  0  0  0  0
    0.0000    0.0000    0.0000 H   0  0  0  0  0  0  0  0  0  0  0  0
    0.0000    0.0000    0.0000 H   0  0  0  0  0  0  0  0  0  0  0  0
    0.0000    0.0000    0.0000 H   0  0  0  0  0  0  0  0  0  0  0  0
    0.0000    0.0000    0.0000 H   0  0  0  0  0  0  0  0  0  0  0  0
    0.0000    0.0000    0.0000 H   0  0  0  0  0  0  0  0  0  0  0  0
    0.0000    0.0000    0.0000 H   0  0  0  0  0  0  0  0  0  0  0  0
    0.0000    0.0000    0.0000 H   0  0  0  0  0  0  0  0  0  0  0  0
    0.0000    0.0000    0.0000 H   0  0  0  0  0  0  0  0  0  0  0  0
    0.0000    0.0000    0.0000 H   0  0  0  0  0  0  0  0  0  0  0  0
  1  6  1  0
  1  2  1  0
  2  3  1  0
  3  4  1  0
  4  5  1  0
  5  6  1  0
  1  7  1  0
  1  8  1  0
  2  9  1  0
  2 10  1  0
  4 11  1  0
  4 12  1  0
  5 13  1  0
  5 14  1  0
  6 15  1  0
M  END
>  <partial_charges>  (244) 
0.124099999666
0.126499995589
-0.418000012636
0.126499995589
0.124099999666
-0.813700020313
0.0379999987781
0.0379999987781
0.0537000000477
0.0537000000477
0.0537000000477
0.0537000000477
0.0379999987781
0.0379999987781
0.363299995661

>  <partial_bond_orders>  (244) 
1.0
1.0
1.0
1.0
1.0
1.0
1.0
1.0
1.0
1.0
1.0
1.0
1.0
1.0
1.0

>  <atom_types>  (244) 
c3
c3
os
c3
c3
n3
h1
h1
h1
h1
h1
h1
h1
h1
hn

>  <target>  (244) 
-7.17

>  <cal>  (244) 
-6.116

$$$$
mobley_6006813
     RDKit          3D

 16 15  0  0  0  0  0  0  0  0999 V2000
   -0.4740    0.9660   -0.2040 C   0  0  0  0  0  0  0  0  0  0  0  0
   -1.0730    1.5380    1.0710 C   0  0  0  0  0  0  0  0  0  0  0  0
   -1.7900    2.8640    0.8060 C   0  0  0  0  0  0  0  0  0  0  0  0
   -2.3980    3.4560    2.0690 C   0  0  0  0  0  0  0  0  0  0  0  0
   -3.0650    4.7170    1.7460 N   0  0  0  0  0  0  0  0  0  0  0  0
   -4.2690    4.6810    1.4210 O   0  0  0  0  0  0  0  0  0  0  0  0
   -2.3880    5.7650    1.7980 O   0  0  0  0  0  0  0  0  0  0  0  0
    0.0000    0.0000    0.0000 H   0  0  0  0  0  0  0  0  0  0  0  0
    0.0000    0.0000    0.0000 H   0  0  0  0  0  0  0  0  0  0  0  0
    0.0000    0.0000    0.0000 H   0  0  0  0  0  0  0  0  0  0  0  0
    0.0000    0.0000    0.0000 H   0  0  0  0  0  0  0  0  0  0  0  0
    0.0000    0.0000    0.0000 H   0  0  0  0  0  0  0  0  0  0  0  0
    0.0000    0.0000    0.0000 H   0  0  0  0  0  0  0  0  0  0  0  0
    0.0000    0.0000    0.0000 H   0  0  0  0  0  0  0  0  0  0  0  0
    0.0000    0.0000    0.0000 H   0  0  0  0  0  0  0  0  0  0  0  0
    0.0000    0.0000    0.0000 H   0  0  0  0  0  0  0  0  0  0  0  0
  1  2  1  0
  2  3  1  0
  3  4  1  0
  4  5  1  0
  5  6  1  0
  5  7  1  0
  1  8  1  0
  1  9  1  0
  1 10  1  0
  2 11  1  0
  2 12  1  0
  3 13  1  0
  3 14  1  0
  4 15  1  0
  4 16  1  0
M  CHG  2   6  -1   7  -1
M  END
>  <partial_charges>  (245) 
-0.0953999981284
-0.0772999972105
-0.0957999974489
-0.0750000029802
0.227400004864
-0.210299998522
-0.210299998522
0.0401999987662
0.0401999987662
0.0401999987662
0.0454999990761
0.0454999990761
0.0683000013232
0.0683000013232
0.0942000001669
0.0942000001669

>  <partial_bond_orders>  (245) 
1.0
1.0
1.0
1.0
1.0
1.0
1.0
1.0
1.0
1.0
1.0
1.0
1.0
1.0
1.0

>  <atom_types>  (245) 
c3
c3
c3
c3
no
o
o
hc
hc
hc
hc
hc
hc
hc
h1
h1

>  <target>  (245) 
-3.09

>  <cal>  (245) 
-1.449

$$$$
mobley_1363784
     RDKit          3D

 17 17  0  0  0  0  0  0  0  0999 V2000
    2.8850   -0.2660    3.6520 C   0  0  0  0  0  0  0  0  0  0  0  0
    1.6520   -0.6230    2.9000 C   0  0  0  0  0  0  0  0  0  0  0  0
    1.3880   -0.0680    1.6520 C   0  0  0  0  0  0  0  0  0  0  0  0
    0.2270   -0.4200    0.9730 C   0  0  0  0  0  0  0  0  0  0  0  0
   -0.6320   -1.3220    1.5800 C   0  0  0  0  0  0  0  0  0  0  0  0
   -0.4090   -1.8820    2.7910 N   0  0  0  0  0  0  0  0  0  0  0  0
    0.7300   -1.5160    3.4210 C   0  0  0  0  0  0  0  0  0  0  0  0
   -0.0850    0.1560   -0.3620 C   0  0  0  0  0  0  0  0  0  0  0  0
    0.0000    0.0000    0.0000 H   0  0  0  0  0  0  0  0  0  0  0  0
    0.0000    0.0000    0.0000 H   0  0  0  0  0  0  0  0  0  0  0  0
    0.0000    0.0000    0.0000 H   0  0  0  0  0  0  0  0  0  0  0  0
    0.0000    0.0000    0.0000 H   0  0  0  0  0  0  0  0  0  0  0  0
    0.0000    0.0000    0.0000 H   0  0  0  0  0  0  0  0  0  0  0  0
    0.0000    0.0000    0.0000 H   0  0  0  0  0  0  0  0  0  0  0  0
    0.0000    0.0000    0.0000 H   0  0  0  0  0  0  0  0  0  0  0  0
    0.0000    0.0000    0.0000 H   0  0  0  0  0  0  0  0  0  0  0  0
    0.0000    0.0000    0.0000 H   0  0  0  0  0  0  0  0  0  0  0  0
  1  2  1  0
  2  7  2  0
  2  3  1  0
  3  4  2  0
  4  5  1  0
  5  6  2  0
  6  7  1  0
  4  8  1  0
  1  9  1  0
  1 10  1  0
  1 11  1  0
  3 12  1  0
  5 13  1  0
  7 14  1  0
  8 15  1  0
  8 16  1  0
  8 17  1  0
M  END
>  <partial_charges>  (246) 
-0.0500999987125
-0.187399998307
-0.0995000004768
-0.187399998307
0.387699991465
-0.659500002861
0.387699991465
-0.0500999987125
0.0467000007629
0.0467000007629
0.0467000007629
0.136899992824
0.0208999998868
0.0208999998868
0.0467000007629
0.0467000007629
0.0467000007629

>  <partial_bond_orders>  (246) 
1.0
2.0
1.0
2.0
1.0
2.0
1.0
1.0
1.0
1.0
1.0
1.0
1.0
1.0
1.0
1.0
1.0

>  <atom_types>  (246) 
c3
ca
ca
ca
ca
nb
ca
c3
hc
hc
hc
ha
h4
h4
hc
hc
hc

>  <target>  (246) 
-4.84

>  <cal>  (246) 
-2.869

$$$$
mobley_6988468
     RDKit          3D

 17 17  0  0  0  0  0  0  0  0999 V2000
    0.3910   -1.2950    5.8830 C   0  0  0  0  0  0  0  0  0  0  0  0
    0.9810   -2.1300    4.7570 C   0  0  0  0  0  0  0  0  0  0  0  0
    0.7300   -1.5160    3.4210 C   0  0  0  0  0  0  0  0  0  0  0  0
    1.6520   -0.6230    2.9000 C   0  0  0  0  0  0  0  0  0  0  0  0
    1.3880   -0.0680    1.6520 C   0  0  0  0  0  0  0  0  0  0  0  0
    0.2270   -0.4200    0.9730 C   0  0  0  0  0  0  0  0  0  0  0  0
   -0.6320   -1.3220    1.5800 C   0  0  0  0  0  0  0  0  0  0  0  0
   -0.4090   -1.8820    2.7910 N   0  0  0  0  0  0  0  0  0  0  0  0
    0.0000    0.0000    0.0000 H   0  0  0  0  0  0  0  0  0  0  0  0
    0.0000    0.0000    0.0000 H   0  0  0  0  0  0  0  0  0  0  0  0
    0.0000    0.0000    0.0000 H   0  0  0  0  0  0  0  0  0  0  0  0
    0.0000    0.0000    0.0000 H   0  0  0  0  0  0  0  0  0  0  0  0
    0.0000    0.0000    0.0000 H   0  0  0  0  0  0  0  0  0  0  0  0
    0.0000    0.0000    0.0000 H   0  0  0  0  0  0  0  0  0  0  0  0
    0.0000    0.0000    0.0000 H   0  0  0  0  0  0  0  0  0  0  0  0
    0.0000    0.0000    0.0000 H   0  0  0  0  0  0  0  0  0  0  0  0
    0.0000    0.0000    0.0000 H   0  0  0  0  0  0  0  0  0  0  0  0
  1  2  1  0
  2  3  1  0
  3  8  2  0
  3  4  1  0
  4  5  2  0
  5  6  1  0
  6  7  2  0
  7  8  1  0
  1  9  1  0
  1 10  1  0
  1 11  1  0
  2 12  1  0
  2 13  1  0
  4 14  1  0
  5 15  1  0
  6 16  1  0
  7 17  1  0
M  END
>  <partial_charges>  (247) 
-0.0891000032425
-0.133900001645
0.411300003529
-0.243699997663
-0.091099999845
-0.252799987793
0.398400008678
-0.667100012302
0.0386000014842
0.0386000014842
0.0386000014842
0.055300001055
0.055300001055
0.142599999905
0.136700004339
0.141599997878
0.0208999998868

>  <partial_bond_orders>  (247) 
1.0
1.0
2.0
1.0
2.0
1.0
2.0
1.0
1.0
1.0
1.0
1.0
1.0
1.0
1.0
1.0
1.0

>  <atom_types>  (247) 
c3
c3
ca
ca
ca
ca
ca
nb
hc
hc
hc
hc
hc
ha
ha
ha
h4

>  <target>  (247) 
-4.33

>  <cal>  (247) 
-3.31

$$$$
mobley_4924862
     RDKit          3D

 20 19  0  0  0  0  0  0  0  0999 V2000
    0.1990   -1.0770    0.0120 C   0  0  0  0  0  0  0  0  0  0  0  0
   -0.6860   -1.8170   -0.9950 C   0  0  0  0  0  0  0  0  0  0  0  0
   -2.1580   -1.6370   -0.6190 C   0  0  0  0  0  0  0  0  0  0  0  0
   -0.3810   -1.3240   -2.4190 C   0  0  0  0  0  0  0  0  0  0  0  0
    1.0650   -1.5440   -2.8470 C   0  0  0  0  0  0  0  0  0  0  0  0
    1.2280   -1.0520   -4.1720 O   0  0  0  0  0  0  0  0  0  0  0  0
    2.4770   -1.1790   -4.6990 C   0  0  0  0  0  0  0  0  0  0  0  0
    3.4610   -1.6640   -4.1610 O   0  0  0  0  0  0  0  0  0  0  0  0
    0.0000    0.0000    0.0000 H   0  0  0  0  0  0  0  0  0  0  0  0
    0.0000    0.0000    0.0000 H   0  0  0  0  0  0  0  0  0  0  0  0
    0.0000    0.0000    0.0000 H   0  0  0  0  0  0  0  0  0  0  0  0
    0.0000    0.0000    0.0000 H   0  0  0  0  0  0  0  0  0  0  0  0
    0.0000    0.0000    0.0000 H   0  0  0  0  0  0  0  0  0  0  0  0
    0.0000    0.0000    0.0000 H   0  0  0  0  0  0  0  0  0  0  0  0
    0.0000    0.0000    0.0000 H   0  0  0  0  0  0  0  0  0  0  0  0
    0.0000    0.0000    0.0000 H   0  0  0  0  0  0  0  0  0  0  0  0
    0.0000    0.0000    0.0000 H   0  0  0  0  0  0  0  0  0  0  0  0
    0.0000    0.0000    0.0000 H   0  0  0  0  0  0  0  0  0  0  0  0
    0.0000    0.0000    0.0000 H   0  0  0  0  0  0  0  0  0  0  0  0
    0.0000    0.0000    0.0000 H   0  0  0  0  0  0  0  0  0  0  0  0
  1  2  1  0
  2  3  1  0
  2  4  1  0
  4  5  1  0
  5  6  1  0
  6  7  1  0
  7  8  2  0
  1  9  1  0
  1 10  1  0
  1 11  1  0
  2 12  1  0
  3 13  1  0
  3 14  1  0
  3 15  1  0
  4 16  1  0
  4 17  1  0
  5 18  1  0
  5 19  1  0
  7 20  1  0
M  END
>  <partial_charges>  (248) 
-0.097199998796
-0.0656000003219
-0.097199998796
-0.0957000032067
0.127599999309
-0.449000000954
0.635500013828
-0.542200028896
0.0379000008106
0.0379000008106
0.0379000008106
0.0445999987423
0.0379000008106
0.0379000008106
0.0379000008106
0.0520000010729
0.0520000010729
0.0656000003219
0.0656000003219
0.0769999995828

>  <partial_bond_orders>  (248) 
1.0
1.0
1.0
1.0
1.0
1.0
2.0
1.0
1.0
1.0
1.0
1.0
1.0
1.0
1.0
1.0
1.0
1.0
1.0

>  <atom_types>  (248) 
c3
c3
c3
c3
c3
os
c
o
hc
hc
hc
hc
hc
hc
hc
hc
hc
h1
h1
h5

>  <target>  (248) 
-2.13

>  <cal>  (248) 
-3.414

$$$$
mobley_5326154
     RDKit          3D

 20 20  0  0  0  0  0  0  0  0999 V2000
    3.2010   -0.9780   -2.2320 C   0  0  0  0  0  0  0  0  0  0  0  0
    1.9290   -1.0140   -1.5220 N   0  0  0  0  0  0  0  0  0  0  0  0
    0.7040   -1.0400   -2.3110 C   0  0  0  0  0  0  0  0  0  0  0  0
    1.8850   -1.0360   -0.1120 C   0  0  0  0  0  0  0  0  0  0  0  0
    2.9210   -1.6310    0.6080 C   0  0  0  0  0  0  0  0  0  0  0  0
    2.8780   -1.6520    2.0020 C   0  0  0  0  0  0  0  0  0  0  0  0
    1.8000   -1.0790    2.6760 C   0  0  0  0  0  0  0  0  0  0  0  0
    0.7640   -0.4840    1.9550 C   0  0  0  0  0  0  0  0  0  0  0  0
    0.8070   -0.4630    0.5610 C   0  0  0  0  0  0  0  0  0  0  0  0
    0.0000    0.0000    0.0000 H   0  0  0  0  0  0  0  0  0  0  0  0
    0.0000    0.0000    0.0000 H   0  0  0  0  0  0  0  0  0  0  0  0
    0.0000    0.0000    0.0000 H   0  0  0  0  0  0  0  0  0  0  0  0
    0.0000    0.0000    0.0000 H   0  0  0  0  0  0  0  0  0  0  0  0
    0.0000    0.0000    0.0000 H   0  0  0  0  0  0  0  0  0  0  0  0
    0.0000    0.0000    0.0000 H   0  0  0  0  0  0  0  0  0  0  0  0
    0.0000    0.0000    0.0000 H   0  0  0  0  0  0  0  0  0  0  0  0
    0.0000    0.0000    0.0000 H   0  0  0  0  0  0  0  0  0  0  0  0
    0.0000    0.0000    0.0000 H   0  0  0  0  0  0  0  0  0  0  0  0
    0.0000    0.0000    0.0000 H   0  0  0  0  0  0  0  0  0  0  0  0
    0.0000    0.0000    0.0000 H   0  0  0  0  0  0  0  0  0  0  0  0
  1  2  1  0
  2  3  1  0
  2  4  1  0
  4  9  2  0
  4  5  1  0
  5  6  2  0
  6  7  1  0
  7  8  2  0
  8  9  1  0
  1 10  1  0
  1 11  1  0
  1 12  1  0
  3 13  1  0
  3 14  1  0
  3 15  1  0
  5 16  1  0
  6 17  1  0
  7 18  1  0
  8 19  1  0
  9 20  1  0
M  END
>  <partial_charges>  (249) 
0.221300005913
-0.725300014019
0.221300005913
0.197500005364
-0.193700000644
-0.095600001514
-0.174500003457
-0.095600001514
-0.193700000644
0.0320999994874
0.0320999994874
0.0320999994874
0.0320999994874
0.0320999994874
0.0320999994874
0.130500003695
0.127200007439
0.129999995232
0.127200007439
0.130500003695

>  <partial_bond_orders>  (249) 
1.0
1.0
1.0
2.0
1.0
2.0
1.0
2.0
1.0
1.0
1.0
1.0
1.0
1.0
1.0
1.0
1.0
1.0
1.0
1.0

>  <atom_types>  (249) 
c3
nh
c3
ca
ca
ca
ca
ca
ca
h1
h1
h1
h1
h1
h1
ha
ha
ha
ha
ha

>  <target>  (249) 
-3.45

>  <cal>  (249) 
-4.426

$$$$
mobley_1849020
     RDKit          3D

 34 34  0  0  0  0  0  0  0  0999 V2000
    2.1820   -0.5070   -0.4910 C   0  0  0  0  0  0  0  0  0  0  0  0
    0.7670   -0.6300    0.0320 C   0  0  0  0  0  0  0  0  0  0  0  0
    0.5070   -1.9880    0.3460 O   0  0  0  0  0  0  0  0  0  0  0  0
   -0.9520   -2.4350    0.9360 P   0  0  0  0  0  0  0  0  0  0  0  0
   -2.4090   -2.0110   -0.3080 S   0  0  0  0  0  0  0  0  0  0  0  0
   -0.6710   -4.0430    1.0400 O   0  0  0  0  0  0  0  0  0  0  0  0
   -1.6800   -4.9160    1.5200 C   0  0  0  0  0  0  0  0  0  0  0  0
   -1.1510   -6.3350    1.5090 C   0  0  0  0  0  0  0  0  0  0  0  0
   -1.0650   -1.6990    2.9280 S   0  0  0  0  0  0  0  0  0  0  0  0
    0.3130   -2.4840    3.8030 C   0  0  0  0  0  0  0  0  0  0  0  0
    0.3960   -1.9800    5.5490 S   0  0  0  0  0  0  0  0  0  0  0  0
    1.8220   -2.9070    6.1020 C   0  0  0  0  0  0  0  0  0  0  0  0
    2.2480   -2.8070    7.4270 C   0  0  0  0  0  0  0  0  0  0  0  0
    3.3600   -3.5310    7.8580 C   0  0  0  0  0  0  0  0  0  0  0  0
    4.0460   -4.3540    6.9650 C   0  0  0  0  0  0  0  0  0  0  0  0
    3.6190   -4.4540    5.6410 C   0  0  0  0  0  0  0  0  0  0  0  0
    2.5070   -3.7310    5.2090 C   0  0  0  0  0  0  0  0  0  0  0  0
    5.4170   -5.2470    7.4970 Cl  0  0  0  0  0  0  0  0  0  0  0  0
    0.0000    0.0000    0.0000 H   0  0  0  0  0  0  0  0  0  0  0  0
    0.0000    0.0000    0.0000 H   0  0  0  0  0  0  0  0  0  0  0  0
    0.0000    0.0000    0.0000 H   0  0  0  0  0  0  0  0  0  0  0  0
    0.0000    0.0000    0.0000 H   0  0  0  0  0  0  0  0  0  0  0  0
    0.0000    0.0000    0.0000 H   0  0  0  0  0  0  0  0  0  0  0  0
    0.0000    0.0000    0.0000 H   0  0  0  0  0  0  0  0  0  0  0  0
    0.0000    0.0000    0.0000 H   0  0  0  0  0  0  0  0  0  0  0  0
    0.0000    0.0000    0.0000 H   0  0  0  0  0  0  0  0  0  0  0  0
    0.0000    0.0000    0.0000 H   0  0  0  0  0  0  0  0  0  0  0  0
    0.0000    0.0000    0.0000 H   0  0  0  0  0  0  0  0  0  0  0  0
    0.0000    0.0000    0.0000 H   0  0  0  0  0  0  0  0  0  0  0  0
    0.0000    0.0000    0.0000 H   0  0  0  0  0  0  0  0  0  0  0  0
    0.0000    0.0000    0.0000 H   0  0  0  0  0  0  0  0  0  0  0  0
    0.0000    0.0000    0.0000 H   0  0  0  0  0  0  0  0  0  0  0  0
    0.0000    0.0000    0.0000 H   0  0  0  0  0  0  0  0  0  0  0  0
    0.0000    0.0000    0.0000 H   0  0  0  0  0  0  0  0  0  0  0  0
  1  2  1  0
  2  3  1  0
  3  4  1  0
  4  5  2  0
  4  6  1  0
  6  7  1  0
  7  8  1  0
  4  9  1  0
  9 10  1  0
 10 11  1  0
 11 12  1  0
 12 17  2  0
 12 13  1  0
 13 14  2  0
 14 15  1  0
 15 16  2  0
 16 17  1  0
 15 18  1  0
  1 19  1  0
  1 20  1  0
  1 21  1  0
  2 22  1  0
  2 23  1  0
  7 24  1  0
  7 25  1  0
  8 26  1  0
  8 27  1  0
  8 28  1  0
 10 29  1  0
 10 30  1  0
 13 31  1  0
 14 32  1  0
 16 33  1  0
 17 34  1  0
M  END
>  <partial_charges>  (250) 
-0.097999997437
0.151800006628
-0.501900017262
0.873399972916
-0.437700003386
-0.501900017262
0.151800006628
-0.097999997437
-0.399300009012
0.153099998832
-0.116200000048
-0.0472999997437
-0.0860999971628
-0.128999993205
0.0348000004888
-0.128999993205
-0.0860999971628
-0.0855000019073
0.0573999993503
0.0573999993503
0.0573999993503
0.0535000003874
0.0535000003874
0.0535000003874
0.0535000003874
0.0573999993503
0.0573999993503
0.0573999993503
0.0979000031948
0.0979000031948
0.146699994802
0.151800006628
0.151800006628
0.146699994802

>  <partial_bond_orders>  (250) 
1.0
1.0
1.0
2.0
1.0
1.0
1.0
1.0
1.0
1.0
1.0
2.0
1.0
2.0
1.0
2.0
1.0
1.0
1.0
1.0
1.0
1.0
1.0
1.0
1.0
1.0
1.0
1.0
1.0
1.0
1.0
1.0
1.0
1.0

>  <atom_types>  (250) 
c3
c3
os
p5
s
os
c3
c3
ss
c3
ss
ca
ca
ca
ca
ca
ca
cl
hc
hc
hc
h1
h1
h1
h1
hc
hc
hc
h2
h2
ha
ha
ha
ha

>  <target>  (250) 
-6.5

>  <cal>  (250) 
-7.024

$$$$
mobley_4584540
     RDKit          3D

 17 17  0  0  0  0  0  0  0  0999 V2000
    0.9810   -2.1310    4.7570 C   0  0  0  0  0  0  0  0  0  0  0  0
    0.7300   -1.5160    3.4210 C   0  0  0  0  0  0  0  0  0  0  0  0
    1.6520   -0.6230    2.9000 C   0  0  0  0  0  0  0  0  0  0  0  0
    1.3880   -0.0680    1.6520 C   0  0  0  0  0  0  0  0  0  0  0  0
    0.2270   -0.4200    0.9730 C   0  0  0  0  0  0  0  0  0  0  0  0
   -0.6320   -1.3220    1.5800 C   0  0  0  0  0  0  0  0  0  0  0  0
   -0.4090   -1.8820    2.7910 N   0  0  0  0  0  0  0  0  0  0  0  0
   -1.8870   -1.7230    0.8800 C   0  0  0  0  0  0  0  0  0  0  0  0
    0.0000    0.0000    0.0000 H   0  0  0  0  0  0  0  0  0  0  0  0
    0.0000    0.0000    0.0000 H   0  0  0  0  0  0  0  0  0  0  0  0
    0.0000    0.0000    0.0000 H   0  0  0  0  0  0  0  0  0  0  0  0
    0.0000    0.0000    0.0000 H   0  0  0  0  0  0  0  0  0  0  0  0
    0.0000    0.0000    0.0000 H   0  0  0  0  0  0  0  0  0  0  0  0
    0.0000    0.0000    0.0000 H   0  0  0  0  0  0  0  0  0  0  0  0
    0.0000    0.0000    0.0000 H   0  0  0  0  0  0  0  0  0  0  0  0
    0.0000    0.0000    0.0000 H   0  0  0  0  0  0  0  0  0  0  0  0
    0.0000    0.0000    0.0000 H   0  0  0  0  0  0  0  0  0  0  0  0
  1  2  1  0
  2  7  2  0
  2  3  1  0
  3  4  2  0
  4  5  1  0
  5  6  2  0
  6  7  1  0
  6  8  1  0
  1  9  1  0
  1 10  1  0
  1 11  1  0
  3 12  1  0
  4 13  1  0
  5 14  1  0
  8 15  1  0
  8 16  1  0
  8 17  1  0
M  END
>  <partial_charges>  (251) 
-0.150099992752
0.418399989605
-0.255199998617
-0.0866999998689
-0.255199998617
0.418399989605
-0.674899995327
-0.150099992752
0.0529000014067
0.0529000014067
0.0529000014067
0.141100004315
0.13560000062
0.141100004315
0.0529000014067
0.0529000014067
0.0529000014067

>  <partial_bond_orders>  (251) 
1.0
2.0
1.0
2.0
1.0
2.0
1.0
1.0
1.0
1.0
1.0
1.0
1.0
1.0
1.0
1.0
1.0

>  <atom_types>  (251) 
c3
ca
ca
ca
ca
ca
nb
c3
hc
hc
hc
ha
ha
ha
hc
hc
hc

>  <target>  (251) 
-4.59

>  <cal>  (251) 
-3.443

$$$$
mobley_1760914
     RDKit          3D

 15 15  0  0  0  0  0  0  0  0999 V2000
    1.9690   -1.0340   -1.6050 C   0  0  0  0  0  0  0  0  0  0  0  0
    1.8850   -1.0360   -0.1120 C   0  0  0  0  0  0  0  0  0  0  0  0
    2.9210   -1.6310    0.6080 C   0  0  0  0  0  0  0  0  0  0  0  0
    2.8780   -1.6520    2.0020 C   0  0  0  0  0  0  0  0  0  0  0  0
    1.8000   -1.0790    2.6760 C   0  0  0  0  0  0  0  0  0  0  0  0
    0.7640   -0.4840    1.9550 C   0  0  0  0  0  0  0  0  0  0  0  0
    0.8070   -0.4630    0.5610 C   0  0  0  0  0  0  0  0  0  0  0  0
   -0.4930    0.2820   -0.2970 Cl  0  0  0  0  0  0  0  0  0  0  0  0
    0.0000    0.0000    0.0000 H   0  0  0  0  0  0  0  0  0  0  0  0
    0.0000    0.0000    0.0000 H   0  0  0  0  0  0  0  0  0  0  0  0
    0.0000    0.0000    0.0000 H   0  0  0  0  0  0  0  0  0  0  0  0
    0.0000    0.0000    0.0000 H   0  0  0  0  0  0  0  0  0  0  0  0
    0.0000    0.0000    0.0000 H   0  0  0  0  0  0  0  0  0  0  0  0
    0.0000    0.0000    0.0000 H   0  0  0  0  0  0  0  0  0  0  0  0
    0.0000    0.0000    0.0000 H   0  0  0  0  0  0  0  0  0  0  0  0
  1  2  1  0
  2  7  2  0
  2  3  1  0
  3  4  2  0
  4  5  1  0
  5  6  2  0
  6  7  1  0
  7  8  1  0
  1  9  1  0
  1 10  1  0
  1 11  1  0
  3 12  1  0
  4 13  1  0
  5 14  1  0
  6 15  1  0
M  END
>  <partial_charges>  (252) 
-0.0588000006974
-0.0653999969363
-0.125400006771
-0.125100001693
-0.127200007439
-0.121399998665
0.01600000076
-0.0987000018358
0.0511000007391
0.0511000007391
0.0511000007391
0.136099994183
0.135000005364
0.135900005698
0.145799994469

>  <partial_bond_orders>  (252) 
1.0
2.0
1.0
2.0
1.0
2.0
1.0
1.0
1.0
1.0
1.0
1.0
1.0
1.0
1.0

>  <atom_types>  (252) 
c3
ca
ca
ca
ca
ca
ca
cl
hc
hc
hc
ha
ha
ha
ha

>  <target>  (252) 
-1.14

>  <cal>  (252) 
-0.473

$$$$
mobley_1735893
     RDKit          3D

 20 19  0  0  0  0  0  0  0  0999 V2000
    1.9050    1.9360   -0.3940 C   0  0  0  0  0  0  0  0  0  0  0  0
    1.7350    0.6230   -1.1430 C   0  0  0  0  0  0  0  0  0  0  0  0
    1.0010    0.7710   -2.4770 C   0  0  0  0  0  0  0  0  0  0  0  0
    0.8040   -0.5230   -3.2730 C   0  0  0  0  0  0  0  0  0  0  0  0
    0.0660   -0.3170   -4.5950 C   0  0  0  0  0  0  0  0  0  0  0  0
   -0.1090   -1.6150   -5.3500 C   0  0  0  0  0  0  0  0  0  0  0  0
    0.2800   -2.7120   -4.9770 O   0  0  0  0  0  0  0  0  0  0  0  0
   -0.7600   -1.4190   -6.5270 O   0  0  0  0  0  0  0  0  0  0  0  0
    0.0000    0.0000    0.0000 H   0  0  0  0  0  0  0  0  0  0  0  0
    0.0000    0.0000    0.0000 H   0  0  0  0  0  0  0  0  0  0  0  0
    0.0000    0.0000    0.0000 H   0  0  0  0  0  0  0  0  0  0  0  0
    0.0000    0.0000    0.0000 H   0  0  0  0  0  0  0  0  0  0  0  0
    0.0000    0.0000    0.0000 H   0  0  0  0  0  0  0  0  0  0  0  0
    0.0000    0.0000    0.0000 H   0  0  0  0  0  0  0  0  0  0  0  0
    0.0000    0.0000    0.0000 H   0  0  0  0  0  0  0  0  0  0  0  0
    0.0000    0.0000    0.0000 H   0  0  0  0  0  0  0  0  0  0  0  0
    0.0000    0.0000    0.0000 H   0  0  0  0  0  0  0  0  0  0  0  0
    0.0000    0.0000    0.0000 H   0  0  0  0  0  0  0  0  0  0  0  0
    0.0000    0.0000    0.0000 H   0  0  0  0  0  0  0  0  0  0  0  0
    0.0000    0.0000    0.0000 H   0  0  0  0  0  0  0  0  0  0  0  0
  1  2  1  0
  2  3  1  0
  3  4  1  0
  4  5  1  0
  5  6  1  0
  6  7  2  0
  6  8  1  0
  1  9  1  0
  1 10  1  0
  1 11  1  0
  2 12  1  0
  2 13  1  0
  3 14  1  0
  3 15  1  0
  4 16  1  0
  4 17  1  0
  5 18  1  0
  5 19  1  0
  8 20  1  0
M  END
>  <partial_charges>  (253) 
-0.0939000025392
-0.0812999978662
-0.076700001955
-0.0788000002503
-0.122800000012
0.634199976921
-0.55269998312
-0.608799993992
0.0344999991357
0.0344999991357
0.0344999991357
0.0384000018239
0.0384000018239
0.042500000447
0.042500000447
0.0559000000358
0.0559000000358
0.0810000002384
0.0810000002384
0.441599994898

>  <partial_bond_orders>  (253) 
1.0
1.0
1.0
1.0
1.0
2.0
1.0
1.0
1.0
1.0
1.0
1.0
1.0
1.0
1.0
1.0
1.0
1.0
1.0

>  <atom_types>  (253) 
c3
c3
c3
c3
c3
c
o
oh
hc
hc
hc
hc
hc
hc
hc
hc
hc
hc
hc
ho

>  <target>  (253) 
-6.21

>  <cal>  (253) 
-7.878

$$$$
mobley_3976574
     RDKit          3D

 22 24  0  0  0  0  0  0  0  0999 V2000
   -1.0040   -0.2570    0.3260 C   0  0  0  0  0  0  0  0  0  0  0  0
   -1.4370   -1.5820    0.2690 C   0  0  0  0  0  0  0  0  0  0  0  0
   -2.7270   -1.9050    0.6890 C   0  0  0  0  0  0  0  0  0  0  0  0
   -3.5800   -0.9100    1.1630 C   0  0  0  0  0  0  0  0  0  0  0  0
   -3.1490    0.4150    1.2200 C   0  0  0  0  0  0  0  0  0  0  0  0
   -1.8580    0.7400    0.8000 C   0  0  0  0  0  0  0  0  0  0  0  0
   -1.3190    2.3730    0.8670 Cl  0  0  0  0  0  0  0  0  0  0  0  0
   -4.8560   -1.1830    1.5850 O   0  0  0  0  0  0  0  0  0  0  0  0
   -5.2390   -2.4980    1.5120 C   0  0  0  0  0  0  0  0  0  0  0  0
   -4.3860   -3.4940    1.0380 C   0  0  0  0  0  0  0  0  0  0  0  0
   -4.8170   -4.8180    0.9820 C   0  0  0  0  0  0  0  0  0  0  0  0
   -6.1070   -5.1430    1.4010 C   0  0  0  0  0  0  0  0  0  0  0  0
   -6.9620   -4.1460    1.8750 C   0  0  0  0  0  0  0  0  0  0  0  0
   -6.5290   -2.8210    1.9320 C   0  0  0  0  0  0  0  0  0  0  0  0
   -7.5640   -1.5540    2.5180 Cl  0  0  0  0  0  0  0  0  0  0  0  0
   -8.5730   -4.5510    2.3990 Cl  0  0  0  0  0  0  0  0  0  0  0  0
   -6.6460   -6.7980    1.3300 Cl  0  0  0  0  0  0  0  0  0  0  0  0
   -3.7250   -6.0320    0.3850 Cl  0  0  0  0  0  0  0  0  0  0  0  0
   -3.1090   -3.2200    0.6160 O   0  0  0  0  0  0  0  0  0  0  0  0
    0.0000    0.0000    0.0000 H   0  0  0  0  0  0  0  0  0  0  0  0
    0.0000    0.0000    0.0000 H   0  0  0  0  0  0  0  0  0  0  0  0
    0.0000    0.0000    0.0000 H   0  0  0  0  0  0  0  0  0  0  0  0
  1  6  2  0
  1  2  1  0
  2  3  2  0
  3 19  1  0
  3  4  1  0
  4  5  2  0
  5  6  1  0
  6  7  1  0
  4  8  1  0
  8  9  1  0
  9 14  2  0
  9 10  1  0
 10 11  2  0
 11 12  1  0
 12 13  2  0
 13 14  1  0
 14 15  1  0
 13 16  1  0
 12 17  1  0
 11 18  1  0
 10 19  1  0
  1 20  1  0
  2 21  1  0
  5 22  1  0
M  END
>  <partial_charges>  (254) 
-0.118600003421
-0.103200003505
0.0582000017166
0.0688000023365
-0.10719999671
0.0204000007361
-0.0737999975681
-0.202600002289
0.0820999965072
0.0842000022531
0.0273000001907
0.0216000005603
0.0207000002265
0.028599999845
-0.0204000007361
-0.0303000006825
-0.0293000005186
-0.0211999993771
-0.202000007033
0.158500000834
0.164199993014
0.173800006509

>  <partial_bond_orders>  (254) 
2.0
1.0
2.0
1.0
1.0
2.0
1.0
1.0
1.0
1.0
2.0
1.0
2.0
1.0
2.0
1.0
1.0
1.0
1.0
1.0
1.0
1.0
1.0
1.0

>  <atom_types>  (254) 
ca
ca
ca
ca
ca
ca
cl
os
ca
ca
ca
ca
ca
ca
cl
cl
cl
cl
os
ha
ha
ha

>  <target>  (254) 
-4.15

>  <cal>  (254) 
-2.31

$$$$
mobley_4013838
     RDKit          3D

 22 21  0  0  0  0  0  0  0  0999 V2000
   -1.9800   -0.3470    1.1280 C   0  0  0  0  0  0  0  0  0  0  0  0
   -1.2260    0.4850    0.0980 C   0  0  0  0  0  0  0  0  0  0  0  0
   -2.1540    0.9410   -1.0240 C   0  0  0  0  0  0  0  0  0  0  0  0
   -0.0580   -0.3290   -0.4560 C   0  0  0  0  0  0  0  0  0  0  0  0
   -0.1850   -1.0490   -1.4480 O   0  0  0  0  0  0  0  0  0  0  0  0
    1.2750   -0.2060    0.2790 C   0  0  0  0  0  0  0  0  0  0  0  0
    2.0830   -1.4950    0.1610 C   0  0  0  0  0  0  0  0  0  0  0  0
    2.0520    0.9810   -0.2770 C   0  0  0  0  0  0  0  0  0  0  0  0
    0.0000    0.0000    0.0000 H   0  0  0  0  0  0  0  0  0  0  0  0
    0.0000    0.0000    0.0000 H   0  0  0  0  0  0  0  0  0  0  0  0
    0.0000    0.0000    0.0000 H   0  0  0  0  0  0  0  0  0  0  0  0
    0.0000    0.0000    0.0000 H   0  0  0  0  0  0  0  0  0  0  0  0
    0.0000    0.0000    0.0000 H   0  0  0  0  0  0  0  0  0  0  0  0
    0.0000    0.0000    0.0000 H   0  0  0  0  0  0  0  0  0  0  0  0
    0.0000    0.0000    0.0000 H   0  0  0  0  0  0  0  0  0  0  0  0
    0.0000    0.0000    0.0000 H   0  0  0  0  0  0  0  0  0  0  0  0
    0.0000    0.0000    0.0000 H   0  0  0  0  0  0  0  0  0  0  0  0
    0.0000    0.0000    0.0000 H   0  0  0  0  0  0  0  0  0  0  0  0
    0.0000    0.0000    0.0000 H   0  0  0  0  0  0  0  0  0  0  0  0
    0.0000    0.0000    0.0000 H   0  0  0  0  0  0  0  0  0  0  0  0
    0.0000    0.0000    0.0000 H   0  0  0  0  0  0  0  0  0  0  0  0
    0.0000    0.0000    0.0000 H   0  0  0  0  0  0  0  0  0  0  0  0
  1  2  1  0
  2  3  1  0
  2  4  1  0
  4  5  2  0
  4  6  1  0
  6  7  1  0
  6  8  1  0
  1  9  1  0
  1 10  1  0
  1 11  1  0
  2 12  1  0
  3 13  1  0
  3 14  1  0
  3 15  1  0
  6 16  1  0
  7 17  1  0
  7 18  1  0
  7 19  1  0
  8 20  1  0
  8 21  1  0
  8 22  1  0
M  END
>  <partial_charges>  (255) 
-0.0864000022411
-0.16210000217
-0.0864000022411
0.5666000247
-0.527499973774
-0.16210000217
-0.0864000022411
-0.0864000022411
0.0427000001073
0.0427000001073
0.0427000001073
0.0590000003576
0.0427000001073
0.0427000001073
0.0427000001073
0.0590000003576
0.0427000001073
0.0427000001073
0.0427000001073
0.0427000001073
0.0427000001073
0.0427000001073

>  <partial_bond_orders>  (255) 
1.0
1.0
1.0
2.0
1.0
1.0
1.0
1.0
1.0
1.0
1.0
1.0
1.0
1.0
1.0
1.0
1.0
1.0
1.0
1.0
1.0

>  <atom_types>  (255) 
c3
c3
c3
c
o
c3
c3
c3
hc
hc
hc
hc
hc
hc
hc
hc
hc
hc
hc
hc
hc
hc

>  <target>  (255) 
-2.74

>  <cal>  (255) 
-2.629

$$$$
mobley_5026370
     RDKit          3D

 12 12  0  0  0  0  0  0  0  0999 V2000
    0.2270   -0.4200    0.9730 C   0  0  0  0  0  0  0  0  0  0  0  0
   -0.6320   -1.3220    1.5800 C   0  0  0  0  0  0  0  0  0  0  0  0
   -0.4090   -1.8820    2.7910 N   0  0  0  0  0  0  0  0  0  0  0  0
    0.7300   -1.5160    3.4210 C   0  0  0  0  0  0  0  0  0  0  0  0
    1.6520   -0.6230    2.9000 C   0  0  0  0  0  0  0  0  0  0  0  0
    1.3880   -0.0680    1.6520 C   0  0  0  0  0  0  0  0  0  0  0  0
    2.3060    0.8580    1.0690 C   0  0  0  0  0  0  0  0  0  0  0  0
    3.0530    1.6120    0.5950 N   0  0  0  0  0  0  0  0  0  0  0  0
    0.0000    0.0000    0.0000 H   0  0  0  0  0  0  0  0  0  0  0  0
    0.0000    0.0000    0.0000 H   0  0  0  0  0  0  0  0  0  0  0  0
    0.0000    0.0000    0.0000 H   0  0  0  0  0  0  0  0  0  0  0  0
    0.0000    0.0000    0.0000 H   0  0  0  0  0  0  0  0  0  0  0  0
  1  6  2  0
  1  2  1  0
  2  3  2  0
  3  4  1  0
  4  5  2  0
  5  6  1  0
  6  7  1  0
  7  8  3  0
  1  9  1  0
  2 10  1  0
  4 11  1  0
  5 12  1  0
M  END
>  <partial_charges>  (256) 
-0.210700005293
0.393299996853
-0.646700024605
0.393299996853
-0.210700005293
0.0240000002086
0.225199997425
-0.343899995089
0.156900003552
0.0313000008464
0.0313000008464
0.156900003552

>  <partial_bond_orders>  (256) 
2.0
1.0
2.0
1.0
2.0
1.0
1.0
3.0
1.0
1.0
1.0
1.0

>  <atom_types>  (256) 
ca
ca
nb
ca
ca
ca
cg
n1
ha
h4
h4
ha

>  <target>  (256) 
-6.02

>  <cal>  (256) 
-5.765

$$$$
mobley_755351
     RDKit          3D

 18 18  0  0  0  0  0  0  0  0999 V2000
    3.0580   -1.6210   -2.0880 C   0  0  0  0  0  0  0  0  0  0  0  0
    1.9260   -1.0160   -1.4730 O   0  0  0  0  0  0  0  0  0  0  0  0
    1.8850   -1.0360   -0.1120 C   0  0  0  0  0  0  0  0  0  0  0  0
    2.9210   -1.6310    0.6080 C   0  0  0  0  0  0  0  0  0  0  0  0
    2.8780   -1.6520    2.0020 C   0  0  0  0  0  0  0  0  0  0  0  0
    1.8000   -1.0790    2.6760 C   0  0  0  0  0  0  0  0  0  0  0  0
    0.7640   -0.4840    1.9550 C   0  0  0  0  0  0  0  0  0  0  0  0
    0.8070   -0.4630    0.5610 C   0  0  0  0  0  0  0  0  0  0  0  0
   -0.3270    0.0960    2.6360 N   0  0  0  0  0  0  0  0  0  0  0  0
    0.0000    0.0000    0.0000 H   0  0  0  0  0  0  0  0  0  0  0  0
    0.0000    0.0000    0.0000 H   0  0  0  0  0  0  0  0  0  0  0  0
    0.0000    0.0000    0.0000 H   0  0  0  0  0  0  0  0  0  0  0  0
    0.0000    0.0000    0.0000 H   0  0  0  0  0  0  0  0  0  0  0  0
    0.0000    0.0000    0.0000 H   0  0  0  0  0  0  0  0  0  0  0  0
    0.0000    0.0000    0.0000 H   0  0  0  0  0  0  0  0  0  0  0  0
    0.0000    0.0000    0.0000 H   0  0  0  0  0  0  0  0  0  0  0  0
    0.0000    0.0000    0.0000 H   0  0  0  0  0  0  0  0  0  0  0  0
    0.0000    0.0000    0.0000 H   0  0  0  0  0  0  0  0  0  0  0  0
  1  2  1  0
  2  3  1  0
  3  8  2  0
  3  4  1  0
  4  5  2  0
  5  6  1  0
  6  7  2  0
  7  8  1  0
  7  9  1  0
  1 10  1  0
  1 11  1  0
  1 12  1  0
  4 13  1  0
  5 14  1  0
  6 15  1  0
  8 16  1  0
  9 17  1  0
  9 18  1  0
M  END
>  <partial_charges>  (257) 
0.111599996686
-0.326099991798
0.15680000186
-0.247299998999
-0.0612000003457
-0.222900003195
0.170100003481
-0.221799999475
-0.821399986744
0.0441999994218
0.0441999994218
0.0441999994218
0.136500000954
0.129399999976
0.13220000267
0.148200005293
0.391499996185
0.391499996185

>  <partial_bond_orders>  (257) 
1.0
1.0
2.0
1.0
2.0
1.0
2.0
1.0
1.0
1.0
1.0
1.0
1.0
1.0
1.0
1.0
1.0
1.0

>  <atom_types>  (257) 
c3
os
ca
ca
ca
ca
ca
ca
nh
h1
h1
h1
ha
ha
ha
ha
hn
hn

>  <target>  (257) 
-7.29

>  <cal>  (257) 
-7.201

$$$$
mobley_4613090
     RDKit          3D

 22 23  0  0  0  0  0  0  0  0999 V2000
    1.8850   -1.0360   -0.1120 C   0  0  0  0  0  0  0  0  0  0  0  0
    2.9210   -1.6310    0.6080 C   0  0  0  0  0  0  0  0  0  0  0  0
    2.8780   -1.6520    2.0020 C   0  0  0  0  0  0  0  0  0  0  0  0
    1.8000   -1.0790    2.6760 C   0  0  0  0  0  0  0  0  0  0  0  0
    0.7640   -0.4840    1.9550 C   0  0  0  0  0  0  0  0  0  0  0  0
    0.8070   -0.4630    0.5610 C   0  0  0  0  0  0  0  0  0  0  0  0
    1.7550   -1.1010    4.1660 C   0  0  0  0  0  0  0  0  0  0  0  0
    2.3950    0.0820    4.7510 N   0  0  0  0  0  0  0  0  0  0  0  0
    3.7160    0.2100    5.1000 C   0  0  0  0  0  0  0  0  0  0  0  0
    3.9720    1.4560    5.6220 C   0  0  0  0  0  0  0  0  0  0  0  0
    2.7700    2.1040    5.5880 N   0  0  0  0  0  0  0  0  0  0  0  0
    1.8530    1.2390    5.0580 C   0  0  0  0  0  0  0  0  0  0  0  0
    0.0000    0.0000    0.0000 H   0  0  0  0  0  0  0  0  0  0  0  0
    0.0000    0.0000    0.0000 H   0  0  0  0  0  0  0  0  0  0  0  0
    0.0000    0.0000    0.0000 H   0  0  0  0  0  0  0  0  0  0  0  0
    0.0000    0.0000    0.0000 H   0  0  0  0  0  0  0  0  0  0  0  0
    0.0000    0.0000    0.0000 H   0  0  0  0  0  0  0  0  0  0  0  0
    0.0000    0.0000    0.0000 H   0  0  0  0  0  0  0  0  0  0  0  0
    0.0000    0.0000    0.0000 H   0  0  0  0  0  0  0  0  0  0  0  0
    0.0000    0.0000    0.0000 H   0  0  0  0  0  0  0  0  0  0  0  0
    0.0000    0.0000    0.0000 H   0  0  0  0  0  0  0  0  0  0  0  0
    0.0000    0.0000    0.0000 H   0  0  0  0  0  0  0  0  0  0  0  0
  1  6  2  0
  1  2  1  0
  2  3  2  0
  3  4  1  0
  4  5  2  0
  5  6  1  0
  4  7  1  0
  7  8  1  0
  8 12  1  0
  8  9  1  0
  9 10  2  0
 10 11  1  0
 11 12  2  0
  1 13  1  0
  2 14  1  0
  3 15  1  0
  5 16  1  0
  6 17  1  0
  7 18  1  0
  7 19  1  0
  9 20  1  0
 10 21  1  0
 12 22  1  0
M  END
>  <partial_charges>  (258) 
-0.117200002074
-0.129099994898
-0.10869999975
-0.120300002396
-0.10869999975
-0.129099994898
0.0886999964714
-0.207300007343
-0.254700005054
0.289200007915
-0.666700005531
0.389600008726
0.134700000286
0.135700002313
0.131999999285
0.131999999285
0.135700002313
0.0661000013351
0.0661000013351
0.173700004816
0.0408999994397
0.0575000010431

>  <partial_bond_orders>  (258) 
2.0
1.0
2.0
1.0
2.0
1.0
1.0
1.0
1.0
1.0
2.0
1.0
2.0
1.0
1.0
1.0
1.0
1.0
1.0
1.0
1.0
1.0
1.0

>  <atom_types>  (258) 
ca
ca
ca
ca
ca
ca
c3
na
cc
cd
nd
cc
ha
ha
ha
ha
ha
h1
h1
h4
h4
h5

>  <target>  (258) 
-7.63

>  <cal>  (258) 
-7.997

$$$$
mobley_6911232
     RDKit          3D

 12 11  0  0  0  0  0  0  0  0999 V2000
    1.0620   -0.2680   -0.0010 C   0  0  0  0  0  0  0  0  0  0  0  0
    1.9100    0.9130   -0.4220 C   0  0  0  0  0  0  0  0  0  0  0  0
    1.5170    1.3240   -1.7230 O   0  0  0  0  0  0  0  0  0  0  0  0
    2.2820    2.4340   -2.1740 C   0  0  0  0  0  0  0  0  0  0  0  0
    0.0000    0.0000    0.0000 H   0  0  0  0  0  0  0  0  0  0  0  0
    0.0000    0.0000    0.0000 H   0  0  0  0  0  0  0  0  0  0  0  0
    0.0000    0.0000    0.0000 H   0  0  0  0  0  0  0  0  0  0  0  0
    0.0000    0.0000    0.0000 H   0  0  0  0  0  0  0  0  0  0  0  0
    0.0000    0.0000    0.0000 H   0  0  0  0  0  0  0  0  0  0  0  0
    0.0000    0.0000    0.0000 H   0  0  0  0  0  0  0  0  0  0  0  0
    0.0000    0.0000    0.0000 H   0  0  0  0  0  0  0  0  0  0  0  0
    0.0000    0.0000    0.0000 H   0  0  0  0  0  0  0  0  0  0  0  0
  1  2  1  0
  2  3  1  0
  3  4  1  0
  1  5  1  0
  1  6  1  0
  1  7  1  0
  2  8  1  0
  2  9  1  0
  4 10  1  0
  4 11  1  0
  4 12  1  0
M  END
>  <partial_charges>  (259) 
-0.097000002861
0.125499993563
-0.418700009584
0.115099996328
0.0447999984026
0.0447999984026
0.0447999984026
0.0219999998808
0.0219999998808
0.0322999991477
0.0322999991477
0.0322999991477

>  <partial_bond_orders>  (259) 
1.0
1.0
1.0
1.0
1.0
1.0
1.0
1.0
1.0
1.0
1.0

>  <atom_types>  (259) 
c3
c3
os
c3
hc
hc
hc
h1
h1
h1
h1
h1

>  <target>  (259) 
-2.1

>  <cal>  (259) 
-0.71

$$$$
mobley_9624458
     RDKit          3D

 11 10  0  0  0  0  0  0  0  0999 V2000
    0.4240    0.3460   -0.3520 C   0  0  0  0  0  0  0  0  0  0  0  0
    0.3250   -1.1740   -0.4610 C   0  0  0  0  0  0  0  0  0  0  0  0
    0.6530   -1.9790    1.0910 Cl  0  0  0  0  0  0  0  0  0  0  0  0
   -0.5370    1.0010    0.6370 C   0  0  0  0  0  0  0  0  0  0  0  0
   -2.2380    0.6860    0.2260 Cl  0  0  0  0  0  0  0  0  0  0  0  0
    0.0000    0.0000    0.0000 H   0  0  0  0  0  0  0  0  0  0  0  0
    0.0000    0.0000    0.0000 H   0  0  0  0  0  0  0  0  0  0  0  0
    0.0000    0.0000    0.0000 H   0  0  0  0  0  0  0  0  0  0  0  0
    0.0000    0.0000    0.0000 H   0  0  0  0  0  0  0  0  0  0  0  0
    0.0000    0.0000    0.0000 H   0  0  0  0  0  0  0  0  0  0  0  0
    0.0000    0.0000    0.0000 H   0  0  0  0  0  0  0  0  0  0  0  0
  1  2  1  0
  2  3  1  0
  1  4  1  0
  4  5  1  0
  1  6  1  0
  1  7  1  0
  2  8  1  0
  2  9  1  0
  4 10  1  0
  4 11  1  0
M  END
>  <partial_charges>  (260) 
-0.0983000025153
0.0337000004947
-0.19619999826
0.0337000004947
-0.19619999826
0.0641999989748
0.0641999989748
0.0737000033259
0.0737000033259
0.0737000033259
0.0737000033259

>  <partial_bond_orders>  (260) 
1.0
1.0
1.0
1.0
1.0
1.0
1.0
1.0
1.0
1.0

>  <atom_types>  (260) 
c3
c3
cl
c3
cl
hc
hc
h1
h1
h1
h1

>  <target>  (260) 
-1.89

>  <cal>  (260) 
-0.416

$$$$
mobley_4850657
     RDKit          3D

  8  7  0  0  0  0  0  0  0  0999 V2000
    0.7070   -0.5800    0.5950 C   0  0  0  0  0  0  0  0  0  0  0  0
    2.3350   -0.0480    0.1960 S   0  0  0  0  0  0  0  0  0  0  0  0
    3.1920   -0.2310    1.3540 O   0  0  0  0  0  0  0  0  0  0  0  0
    2.2620    1.2280   -0.4960 O   0  0  0  0  0  0  0  0  0  0  0  0
    3.0600   -1.3600   -1.2030 Cl  0  0  0  0  0  0  0  0  0  0  0  0
    0.0000    0.0000    0.0000 H   0  0  0  0  0  0  0  0  0  0  0  0
    0.0000    0.0000    0.0000 H   0  0  0  0  0  0  0  0  0  0  0  0
    0.0000    0.0000    0.0000 H   0  0  0  0  0  0  0  0  0  0  0  0
  1  2  1  0
  2  3  2  0
  2  4  2  0
  2  5  1  0
  1  6  1  0
  1  7  1  0
  1  8  1  0
M  END
>  <partial_charges>  (261) 
-0.388900011778
1.35580003262
-0.581200003624
-0.581200003624
-0.224099993706
0.139899998903
0.139899998903
0.139899998903

>  <partial_bond_orders>  (261) 
1.0
2.0
2.0
1.0
1.0
1.0
1.0

>  <atom_types>  (261) 
c3
s6
o
o
cl
h1
h1
h1

>  <target>  (261) 
-4.87

>  <cal>  (261) 
-6.219

$$$$
mobley_5732611
     RDKit          3D

 12 12  0  0  0  0  0  0  0  0999 V2000
   -0.2080    0.2980    0.1230 C   0  0  0  0  0  0  0  0  0  0  0  0
    0.6550   -0.7780   -0.3640 C   0  0  0  0  0  0  0  0  0  0  0  0
    1.9500   -0.7740   -0.8260 C   0  0  0  0  0  0  0  0  0  0  0  0
    2.3540   -2.0370   -1.1810 N   0  0  0  0  0  0  0  0  0  0  0  0
    1.3130   -2.8020   -0.9370 C   0  0  0  0  0  0  0  0  0  0  0  0
    0.2600   -2.0840   -0.4420 N   0  0  0  0  0  0  0  0  0  0  0  0
    0.0000    0.0000    0.0000 H   0  0  0  0  0  0  0  0  0  0  0  0
    0.0000    0.0000    0.0000 H   0  0  0  0  0  0  0  0  0  0  0  0
    0.0000    0.0000    0.0000 H   0  0  0  0  0  0  0  0  0  0  0  0
    0.0000    0.0000    0.0000 H   0  0  0  0  0  0  0  0  0  0  0  0
    0.0000    0.0000    0.0000 H   0  0  0  0  0  0  0  0  0  0  0  0
    0.0000    0.0000    0.0000 H   0  0  0  0  0  0  0  0  0  0  0  0
  1  2  1  0
  2  6  1  0
  2  3  2  0
  3  4  1  0
  4  5  1  0
  5  6  2  0
  1  7  1  0
  1  8  1  0
  1  9  1  0
  3 10  1  0
  4 11  1  0
  5 12  1  0
M  END
>  <partial_charges>  (262) 
-0.113700002432
0.305099993944
-0.257899999619
-0.325800001621
0.388900011778
-0.668299973011
0.0461000017822
0.0461000017822
0.0461000017822
0.175699993968
0.298599988222
0.0590999983251

>  <partial_bond_orders>  (262) 
1.0
1.0
2.0
1.0
1.0
2.0
1.0
1.0
1.0
1.0
1.0
1.0

>  <atom_types>  (262) 
c3
cc
cd
na
cd
nc
hc
hc
hc
h4
hn
h5

>  <target>  (262) 
-10.27

>  <cal>  (262) 
-8.205

$$$$
mobley_6714389
     RDKit          3D

  7  6  0  0  0  0  0  0  0  0999 V2000
   -0.6180   -0.7480    0.5040 C   0  0  0  0  0  0  0  0  0  0  0  0
   -1.8490   -0.9390   -0.2110 N   0  0  0  0  0  0  0  0  0  0  0  0
    0.0000    0.0000    0.0000 H   0  0  0  0  0  0  0  0  0  0  0  0
    0.0000    0.0000    0.0000 H   0  0  0  0  0  0  0  0  0  0  0  0
    0.0000    0.0000    0.0000 H   0  0  0  0  0  0  0  0  0  0  0  0
    0.0000    0.0000    0.0000 H   0  0  0  0  0  0  0  0  0  0  0  0
    0.0000    0.0000    0.0000 H   0  0  0  0  0  0  0  0  0  0  0  0
  1  2  1  0
  1  3  1  0
  1  4  1  0
  1  5  1  0
  2  6  1  0
  2  7  1  0
M  END
>  <partial_charges>  (263) 
0.149499997497
-0.923099994659
0.025399999693
0.025399999693
0.025399999693
0.348699986935
0.348699986935

>  <partial_bond_orders>  (263) 
1.0
1.0
1.0
1.0
1.0
1.0

>  <atom_types>  (263) 
c3
n3
h1
h1
h1
hn
hn

>  <target>  (263) 
-4.55

>  <cal>  (263) 
-3.583

$$$$
mobley_1261349
     RDKit          3D

 17 16  0  0  0  0  0  0  0  0999 V2000
   -0.6140   -0.1250    0.8990 C   0  0  0  0  0  0  0  0  0  0  0  0
    0.2610   -0.3500    2.1410 C   0  0  0  0  0  0  0  0  0  0  0  0
    1.1850    0.8590    2.3420 C   0  0  0  0  0  0  0  0  0  0  0  0
    1.1080   -1.6160    1.9470 C   0  0  0  0  0  0  0  0  0  0  0  0
   -0.6370   -0.5190    3.3750 C   0  0  0  0  0  0  0  0  0  0  0  0
    0.0000    0.0000    0.0000 H   0  0  0  0  0  0  0  0  0  0  0  0
    0.0000    0.0000    0.0000 H   0  0  0  0  0  0  0  0  0  0  0  0
    0.0000    0.0000    0.0000 H   0  0  0  0  0  0  0  0  0  0  0  0
    0.0000    0.0000    0.0000 H   0  0  0  0  0  0  0  0  0  0  0  0
    0.0000    0.0000    0.0000 H   0  0  0  0  0  0  0  0  0  0  0  0
    0.0000    0.0000    0.0000 H   0  0  0  0  0  0  0  0  0  0  0  0
    0.0000    0.0000    0.0000 H   0  0  0  0  0  0  0  0  0  0  0  0
    0.0000    0.0000    0.0000 H   0  0  0  0  0  0  0  0  0  0  0  0
    0.0000    0.0000    0.0000 H   0  0  0  0  0  0  0  0  0  0  0  0
    0.0000    0.0000    0.0000 H   0  0  0  0  0  0  0  0  0  0  0  0
    0.0000    0.0000    0.0000 H   0  0  0  0  0  0  0  0  0  0  0  0
    0.0000    0.0000    0.0000 H   0  0  0  0  0  0  0  0  0  0  0  0
  1  2  1  0
  2  3  1  0
  2  4  1  0
  2  5  1  0
  1  6  1  0
  1  7  1  0
  1  8  1  0
  3  9  1  0
  3 10  1  0
  3 11  1  0
  4 12  1  0
  4 13  1  0
  4 14  1  0
  5 15  1  0
  5 16  1  0
  5 17  1  0
M  END
>  <partial_charges>  (264) 
-0.0848999992013
-0.0595999993384
-0.0848999992013
-0.0848999992013
-0.0848999992013
0.0333000011742
0.0333000011742
0.0333000011742
0.0333000011742
0.0333000011742
0.0333000011742
0.0333000011742
0.0333000011742
0.0333000011742
0.0333000011742
0.0333000011742
0.0333000011742

>  <partial_bond_orders>  (264) 
1.0
1.0
1.0
1.0
1.0
1.0
1.0
1.0
1.0
1.0
1.0
1.0
1.0
1.0
1.0
1.0

>  <atom_types>  (264) 
c3
c3
c3
c3
c3
hc
hc
hc
hc
hc
hc
hc
hc
hc
hc
hc
hc

>  <target>  (264) 
2.51

>  <cal>  (264) 
2.506

$$$$
mobley_8983100
     RDKit          3D

  5  4  0  0  0  0  0  0  0  0999 V2000
   -0.1790    0.0250   -0.0310 C   0  0  0  0  0  0  0  0  0  0  0  0
    1.7090   -0.2420    0.2920 Br  0  0  0  0  0  0  0  0  0  0  0  0
    0.0000    0.0000    0.0000 H   0  0  0  0  0  0  0  0  0  0  0  0
    0.0000    0.0000    0.0000 H   0  0  0  0  0  0  0  0  0  0  0  0
    0.0000    0.0000    0.0000 H   0  0  0  0  0  0  0  0  0  0  0  0
  1  2  1  0
  1  3  1  0
  1  4  1  0
  1  5  1  0
M  END
>  <partial_charges>  (265) 
-0.0394000001252
-0.167899996042
0.0690999999642
0.0690999999642
0.0690999999642

>  <partial_bond_orders>  (265) 
1.0
1.0
1.0
1.0

>  <atom_types>  (265) 
c3
br
h1
h1
h1

>  <target>  (265) 
-0.82

>  <cal>  (265) 
0.46

$$$$
mobley_8208692
     RDKit          3D

 22 23  0  0  0  0  0  0  0  0999 V2000
    1.8850   -1.0360   -0.1120 C   0  0  0  0  0  0  0  0  0  0  0  0
    2.9210   -1.6310    0.6080 C   0  0  0  0  0  0  0  0  0  0  0  0
    2.8780   -1.6520    2.0020 C   0  0  0  0  0  0  0  0  0  0  0  0
    1.8000   -1.0790    2.6760 C   0  0  0  0  0  0  0  0  0  0  0  0
    0.7640   -0.4840    1.9550 C   0  0  0  0  0  0  0  0  0  0  0  0
    0.8070   -0.4630    0.5610 C   0  0  0  0  0  0  0  0  0  0  0  0
   -0.4400    0.2530   -0.4030 Cl  0  0  0  0  0  0  0  0  0  0  0  0
   -0.5890    0.2360    2.7820 Cl  0  0  0  0  0  0  0  0  0  0  0  0
    1.7480   -1.1070    4.4170 Cl  0  0  0  0  0  0  0  0  0  0  0  0
    4.1840   -2.3980    2.8820 Cl  0  0  0  0  0  0  0  0  0  0  0  0
    4.0190   -2.2130   -0.1430 C   0  0  0  0  0  0  0  0  0  0  0  0
    3.9520   -3.5500   -0.5340 C   0  0  0  0  0  0  0  0  0  0  0  0
    5.0010   -4.1190   -1.2570 C   0  0  0  0  0  0  0  0  0  0  0  0
    6.1160   -3.3500   -1.5890 C   0  0  0  0  0  0  0  0  0  0  0  0
    6.1830   -2.0130   -1.1980 C   0  0  0  0  0  0  0  0  0  0  0  0
    5.1340   -1.4440   -0.4750 C   0  0  0  0  0  0  0  0  0  0  0  0
    5.2090    0.2250    0.0210 Cl  0  0  0  0  0  0  0  0  0  0  0  0
    7.5800   -1.0640   -1.6190 Cl  0  0  0  0  0  0  0  0  0  0  0  0
    7.3770   -4.1260   -2.4870 Cl  0  0  0  0  0  0  0  0  0  0  0  0
    2.5970   -4.5590   -0.1560 Cl  0  0  0  0  0  0  0  0  0  0  0  0
    0.0000    0.0000    0.0000 H   0  0  0  0  0  0  0  0  0  0  0  0
    0.0000    0.0000    0.0000 H   0  0  0  0  0  0  0  0  0  0  0  0
  1  6  2  0
  1  2  1  0
  2  3  2  0
  3  4  1  0
  4  5  2  0
  5  6  1  0
  6  7  1  0
  5  8  1  0
  4  9  1  0
  3 10  1  0
  2 11  1  0
 11 16  1  0
 11 12  2  0
 12 13  1  0
 13 14  2  0
 14 15  1  0
 15 16  2  0
 16 17  1  0
 15 18  1  0
 14 19  1  0
 12 20  1  0
  1 21  1  0
 13 22  1  0
M  END
>  <partial_charges>  (266) 
-0.0848999992013
-0.0289999991655
0.0471000000834
0.0185000002384
0.0311999991536
0.0181000009179
-0.0505999997258
-0.0337000004947
-0.0346000008285
-0.0401999987662
-0.0348000004888
0.0480999983847
-0.119199998677
0.0379000008106
0.00999999977648
0.0493000000715
-0.0368999987841
-0.0335999988019
-0.0474000014365
-0.0535000003874
0.166400000453
0.171800002456

>  <partial_bond_orders>  (266) 
2.0
1.0
2.0
1.0
2.0
1.0
1.0
1.0
1.0
1.0
1.0
2.0
1.0
2.0
1.0
2.0
1.0
1.0
1.0
1.0
1.0
1.0
1.0

>  <atom_types>  (266) 
ca
cp
ca
ca
ca
ca
cl
cl
cl
cl
cp
ca
ca
ca
ca
ca
cl
cl
cl
cl
ha
ha

>  <target>  (266) 
-4.61

>  <cal>  (266) 
-0.039

$$$$
mobley_3269819
     RDKit          3D

 22 23  0  0  0  0  0  0  0  0999 V2000
    1.8850   -1.0360   -0.1120 C   0  0  0  0  0  0  0  0  0  0  0  0
    2.9210   -1.6310    0.6080 C   0  0  0  0  0  0  0  0  0  0  0  0
    2.8780   -1.6520    2.0020 C   0  0  0  0  0  0  0  0  0  0  0  0
    1.8000   -1.0790    2.6760 C   0  0  0  0  0  0  0  0  0  0  0  0
    0.7640   -0.4840    1.9550 C   0  0  0  0  0  0  0  0  0  0  0  0
    0.8070   -0.4630    0.5610 C   0  0  0  0  0  0  0  0  0  0  0  0
   -0.4410    0.2560   -0.3990 Cl  0  0  0  0  0  0  0  0  0  0  0  0
   -0.5810    0.2290    2.7940 Cl  0  0  0  0  0  0  0  0  0  0  0  0
    1.8160   -1.1440    4.4050 Cl  0  0  0  0  0  0  0  0  0  0  0  0
    4.0400   -2.2260   -0.0910 C   0  0  0  0  0  0  0  0  0  0  0  0
    3.9450   -3.5740   -0.4390 C   0  0  0  0  0  0  0  0  0  0  0  0
    4.9950   -4.1950   -1.1130 C   0  0  0  0  0  0  0  0  0  0  0  0
    6.1410   -3.4690   -1.4400 C   0  0  0  0  0  0  0  0  0  0  0  0
    6.2350   -2.1220   -1.0930 C   0  0  0  0  0  0  0  0  0  0  0  0
    5.1850   -1.5000   -0.4180 C   0  0  0  0  0  0  0  0  0  0  0  0
    5.2840    0.1800    0.0300 Cl  0  0  0  0  0  0  0  0  0  0  0  0
    7.6650   -1.2140   -1.4990 Cl  0  0  0  0  0  0  0  0  0  0  0  0
    7.4440   -4.2590   -2.2830 Cl  0  0  0  0  0  0  0  0  0  0  0  0
    4.8020   -5.8690   -1.5130 Cl  0  0  0  0  0  0  0  0  0  0  0  0
    0.0000    0.0000    0.0000 H   0  0  0  0  0  0  0  0  0  0  0  0
    0.0000    0.0000    0.0000 H   0  0  0  0  0  0  0  0  0  0  0  0
    0.0000    0.0000    0.0000 H   0  0  0  0  0  0  0  0  0  0  0  0
  1  6  2  0
  1  2  1  0
  2  3  2  0
  3  4  1  0
  4  5  2  0
  5  6  1  0
  6  7  1  0
  5  8  1  0
  4  9  1  0
  2 10  1  0
 10 15  1  0
 10 11  2  0
 11 12  1  0
 12 13  2  0
 13 14  1  0
 14 15  2  0
 15 16  1  0
 14 17  1  0
 13 18  1  0
 12 19  1  0
  1 20  1  0
  3 21  1  0
 11 22  1  0
M  END
>  <partial_charges>  (267) 
-0.0962999984622
-0.035300001502
-0.0962999984622
0.0209999997169
0.0238000005484
0.0209999997169
-0.0555999986827
-0.0377999991179
-0.0555999986827
-0.0281000006944
-0.0973000004888
0.0197999998927
0.0273000001907
0.019200000912
0.0357000008225
-0.040300000459
-0.0340999998152
-0.0328000001609
-0.0487999990582
0.162200003862
0.162200003862
0.16629999876

>  <partial_bond_orders>  (267) 
2.0
1.0
2.0
1.0
2.0
1.0
1.0
1.0
1.0
1.0
2.0
1.0
2.0
1.0
2.0
1.0
1.0
1.0
1.0
1.0
1.0
1.0
1.0

>  <atom_types>  (267) 
ca
cp
ca
ca
ca
ca
cl
cl
cl
cp
ca
ca
ca
ca
ca
cl
cl
cl
cl
ha
ha
ha

>  <target>  (267) 
-3.17

>  <cal>  (267) 
-0.822

$$$$
mobley_6743808
     RDKit          3D

 19 19  0  0  0  0  0  0  0  0999 V2000
    1.9520   -1.0270   -1.6040 C   0  0  0  0  0  0  0  0  0  0  0  0
    1.8850   -1.0360   -0.1120 C   0  0  0  0  0  0  0  0  0  0  0  0
    2.9210   -1.6310    0.6080 C   0  0  0  0  0  0  0  0  0  0  0  0
    2.8780   -1.6520    2.0020 C   0  0  0  0  0  0  0  0  0  0  0  0
    1.8000   -1.0790    2.6760 C   0  0  0  0  0  0  0  0  0  0  0  0
    0.7640   -0.4840    1.9550 C   0  0  0  0  0  0  0  0  0  0  0  0
    0.8070   -0.4630    0.5610 C   0  0  0  0  0  0  0  0  0  0  0  0
   -0.3150    0.1780   -0.1890 C   0  0  0  0  0  0  0  0  0  0  0  0
    1.7580   -1.1000    4.0360 O   0  0  0  0  0  0  0  0  0  0  0  0
    0.0000    0.0000    0.0000 H   0  0  0  0  0  0  0  0  0  0  0  0
    0.0000    0.0000    0.0000 H   0  0  0  0  0  0  0  0  0  0  0  0
    0.0000    0.0000    0.0000 H   0  0  0  0  0  0  0  0  0  0  0  0
    0.0000    0.0000    0.0000 H   0  0  0  0  0  0  0  0  0  0  0  0
    0.0000    0.0000    0.0000 H   0  0  0  0  0  0  0  0  0  0  0  0
    0.0000    0.0000    0.0000 H   0  0  0  0  0  0  0  0  0  0  0  0
    0.0000    0.0000    0.0000 H   0  0  0  0  0  0  0  0  0  0  0  0
    0.0000    0.0000    0.0000 H   0  0  0  0  0  0  0  0  0  0  0  0
    0.0000    0.0000    0.0000 H   0  0  0  0  0  0  0  0  0  0  0  0
    0.0000    0.0000    0.0000 H   0  0  0  0  0  0  0  0  0  0  0  0
  1  2  1  0
  2  7  2  0
  2  3  1  0
  3  4  2  0
  4  5  1  0
  5  6  2  0
  6  7  1  0
  7  8  1  0
  5  9  1  0
  1 10  1  0
  1 11  1  0
  1 12  1  0
  3 13  1  0
  4 14  1  0
  6 15  1  0
  8 16  1  0
  8 17  1  0
  8 18  1  0
  9 19  1  0
M  END
>  <partial_charges>  (268) 
-0.0493000000715
-0.109600000083
-0.0901999995112
-0.212300002575
0.121699996293
-0.158000007272
-0.0414999984205
-0.0562000013888
-0.499599993229
0.0419999994338
0.0419999994338
0.0419999994338
0.131999999285
0.132400006056
0.148599997163
0.0463000014424
0.0463000014424
0.0463000014424
0.417100012302

>  <partial_bond_orders>  (268) 
1.0
2.0
1.0
2.0
1.0
2.0
1.0
1.0
1.0
1.0
1.0
1.0
1.0
1.0
1.0
1.0
1.0
1.0
1.0

>  <atom_types>  (268) 
c3
ca
ca
ca
ca
ca
ca
c3
oh
hc
hc
hc
ha
ha
ha
hc
hc
hc
ho

>  <target>  (268) 
-6.5

>  <cal>  (268) 
-5.471

$$$$
mobley_7227357
     RDKit          3D

 18 17  0  0  0  0  0  0  0  0999 V2000
   -0.2570    0.9720    0.2430 C   0  0  0  0  0  0  0  0  0  0  0  0
   -0.4530    1.2390    1.7300 C   0  0  0  0  0  0  0  0  0  0  0  0
   -1.5320    0.3420    2.3460 C   0  0  0  0  0  0  0  0  0  0  0  0
   -1.6990    0.6410    3.8400 C   0  0  0  0  0  0  0  0  0  0  0  0
   -2.7610   -0.2260    4.5030 C   0  0  0  0  0  0  0  0  0  0  0  0
   -1.1460   -1.0190    2.1650 O   0  0  0  0  0  0  0  0  0  0  0  0
    0.0000    0.0000    0.0000 H   0  0  0  0  0  0  0  0  0  0  0  0
    0.0000    0.0000    0.0000 H   0  0  0  0  0  0  0  0  0  0  0  0
    0.0000    0.0000    0.0000 H   0  0  0  0  0  0  0  0  0  0  0  0
    0.0000    0.0000    0.0000 H   0  0  0  0  0  0  0  0  0  0  0  0
    0.0000    0.0000    0.0000 H   0  0  0  0  0  0  0  0  0  0  0  0
    0.0000    0.0000    0.0000 H   0  0  0  0  0  0  0  0  0  0  0  0
    0.0000    0.0000    0.0000 H   0  0  0  0  0  0  0  0  0  0  0  0
    0.0000    0.0000    0.0000 H   0  0  0  0  0  0  0  0  0  0  0  0
    0.0000    0.0000    0.0000 H   0  0  0  0  0  0  0  0  0  0  0  0
    0.0000    0.0000    0.0000 H   0  0  0  0  0  0  0  0  0  0  0  0
    0.0000    0.0000    0.0000 H   0  0  0  0  0  0  0  0  0  0  0  0
    0.0000    0.0000    0.0000 H   0  0  0  0  0  0  0  0  0  0  0  0
  1  2  1  0
  2  3  1  0
  3  4  1  0
  4  5  1  0
  3  6  1  0
  1  7  1  0
  1  8  1  0
  1  9  1  0
  2 10  1  0
  2 11  1  0
  3 12  1  0
  4 13  1  0
  4 14  1  0
  5 15  1  0
  5 16  1  0
  5 17  1  0
  6 18  1  0
M  END
>  <partial_charges>  (269) 
-0.0900000035763
-0.111699998379
0.135800004005
-0.111699998379
-0.0900000035763
-0.595600008965
0.0377999991179
0.0377999991179
0.0377999991179
0.0414999984205
0.0414999984205
0.0763000026345
0.0414999984205
0.0414999984205
0.0377999991179
0.0377999991179
0.0377999991179
0.394499987364

>  <partial_bond_orders>  (269) 
1.0
1.0
1.0
1.0
1.0
1.0
1.0
1.0
1.0
1.0
1.0
1.0
1.0
1.0
1.0
1.0
1.0

>  <atom_types>  (269) 
c3
c3
c3
c3
c3
oh
hc
hc
hc
hc
hc
h1
hc
hc
hc
hc
hc
ho

>  <target>  (269) 
-4.35

>  <cal>  (269) 
-2.786

$$$$
mobley_5310099
     RDKit          3D

 18 17  0  0  0  0  0  0  0  0999 V2000
   -1.0510    2.6150    5.4660 C   0  0  0  0  0  0  0  0  0  0  0  0
   -1.0220    2.7710    3.9540 C   0  0  0  0  0  0  0  0  0  0  0  0
    0.0870    1.9290    3.3250 C   0  0  0  0  0  0  0  0  0  0  0  0
    0.1110    2.0900    1.8030 C   0  0  0  0  0  0  0  0  0  0  0  0
    1.2000    1.2630    1.1850 C   0  0  0  0  0  0  0  0  0  0  0  0
    0.9850    0.2960    0.2860 C   0  0  0  0  0  0  0  0  0  0  0  0
    0.0000    0.0000    0.0000 H   0  0  0  0  0  0  0  0  0  0  0  0
    0.0000    0.0000    0.0000 H   0  0  0  0  0  0  0  0  0  0  0  0
    0.0000    0.0000    0.0000 H   0  0  0  0  0  0  0  0  0  0  0  0
    0.0000    0.0000    0.0000 H   0  0  0  0  0  0  0  0  0  0  0  0
    0.0000    0.0000    0.0000 H   0  0  0  0  0  0  0  0  0  0  0  0
    0.0000    0.0000    0.0000 H   0  0  0  0  0  0  0  0  0  0  0  0
    0.0000    0.0000    0.0000 H   0  0  0  0  0  0  0  0  0  0  0  0
    0.0000    0.0000    0.0000 H   0  0  0  0  0  0  0  0  0  0  0  0
    0.0000    0.0000    0.0000 H   0  0  0  0  0  0  0  0  0  0  0  0
    0.0000    0.0000    0.0000 H   0  0  0  0  0  0  0  0  0  0  0  0
    0.0000    0.0000    0.0000 H   0  0  0  0  0  0  0  0  0  0  0  0
    0.0000    0.0000    0.0000 H   0  0  0  0  0  0  0  0  0  0  0  0
  1  2  1  0
  2  3  1  0
  3  4  1  0
  4  5  1  0
  5  6  2  3
  1  7  1  0
  1  8  1  0
  1  9  1  0
  2 10  1  0
  2 11  1  0
  3 12  1  0
  3 13  1  0
  4 14  1  0
  4 15  1  0
  5 16  1  0
  6 17  1  0
  6 18  1  0
M  END
>  <partial_charges>  (270) 
-0.0920000001788
-0.0803999975324
-0.0754999965429
-0.0522000007331
-0.16210000217
-0.223900005221
0.033100001514
0.033100001514
0.033100001514
0.0381000004709
0.0381000004709
0.0410999991
0.0410999991
0.0447999984026
0.0447999984026
0.117399998009
0.11060000211
0.11060000211

>  <partial_bond_orders>  (270) 
1.0
1.0
1.0
1.0
2.0
1.0
1.0
1.0
1.0
1.0
1.0
1.0
1.0
1.0
1.0
1.0
1.0

>  <atom_types>  (270) 
c3
c3
c3
c3
c2
c2
hc
hc
hc
hc
hc
hc
hc
hc
hc
ha
ha
ha

>  <target>  (270) 
1.58

>  <cal>  (270) 
2.628

$$$$
mobley_6115639
     RDKit          3D

 17 16  0  0  0  0  0  0  0  0999 V2000
    1.0020   -0.2850   -0.3280 C   0  0  0  0  0  0  0  0  0  0  0  0
    1.0800   -0.1390   -1.7360 O   0  0  0  0  0  0  0  0  0  0  0  0
    2.4480   -0.5830   -2.4830 P   0  0  0  0  0  0  0  0  0  0  0  0
    2.8150   -2.0290   -2.3080 O   0  0  0  0  0  0  0  0  0  0  0  0
    2.1850   -0.1340   -4.0170 O   0  0  0  0  0  0  0  0  0  0  0  0
    3.2020   -0.3770   -4.9750 C   0  0  0  0  0  0  0  0  0  0  0  0
    3.5620    0.4610   -1.9410 O   0  0  0  0  0  0  0  0  0  0  0  0
    3.4020    1.8520   -2.1600 C   0  0  0  0  0  0  0  0  0  0  0  0
    0.0000    0.0000    0.0000 H   0  0  0  0  0  0  0  0  0  0  0  0
    0.0000    0.0000    0.0000 H   0  0  0  0  0  0  0  0  0  0  0  0
    0.0000    0.0000    0.0000 H   0  0  0  0  0  0  0  0  0  0  0  0
    0.0000    0.0000    0.0000 H   0  0  0  0  0  0  0  0  0  0  0  0
    0.0000    0.0000    0.0000 H   0  0  0  0  0  0  0  0  0  0  0  0
    0.0000    0.0000    0.0000 H   0  0  0  0  0  0  0  0  0  0  0  0
    0.0000    0.0000    0.0000 H   0  0  0  0  0  0  0  0  0  0  0  0
    0.0000    0.0000    0.0000 H   0  0  0  0  0  0  0  0  0  0  0  0
    0.0000    0.0000    0.0000 H   0  0  0  0  0  0  0  0  0  0  0  0
  1  2  1  0
  2  3  1  0
  3  4  2  0
  3  5  1  0
  5  6  1  0
  3  7  1  0
  7  8  1  0
  1  9  1  0
  1 10  1  0
  1 11  1  0
  6 12  1  0
  6 13  1  0
  6 14  1  0
  8 15  1  0
  8 16  1  0
  8 17  1  0
M  END
>  <partial_charges>  (271) 
0.147900000215
-0.564400017262
1.59640002251
-0.7825999856
-0.564400017262
0.147900000215
-0.564400017262
0.147900000215
0.0483999997377
0.0483999997377
0.0483999997377
0.0483999997377
0.0483999997377
0.0483999997377
0.0483999997377
0.0483999997377
0.0483999997377

>  <partial_bond_orders>  (271) 
1.0
1.0
2.0
1.0
1.0
1.0
1.0
1.0
1.0
1.0
1.0
1.0
1.0
1.0
1.0
1.0

>  <atom_types>  (271) 
c3
os
p5
o
os
c3
os
c3
h1
h1
h1
h1
h1
h1
h1
h1
h1

>  <target>  (271) 
-8.7

>  <cal>  (271) 
-10.642

$$$$
mobley_5973402
     RDKit          3D

 18 17  0  0  0  0  0  0  0  0999 V2000
    0.1990   -1.0770    0.0120 C   0  0  0  0  0  0  0  0  0  0  0  0
   -0.6860   -1.8170   -0.9950 C   0  0  0  0  0  0  0  0  0  0  0  0
   -2.1580   -1.6370   -0.6190 C   0  0  0  0  0  0  0  0  0  0  0  0
   -0.3810   -1.3240   -2.4190 C   0  0  0  0  0  0  0  0  0  0  0  0
    1.0650   -1.5440   -2.8470 C   0  0  0  0  0  0  0  0  0  0  0  0
    1.2280   -1.0520   -4.1720 O   0  0  0  0  0  0  0  0  0  0  0  0
    0.0000    0.0000    0.0000 H   0  0  0  0  0  0  0  0  0  0  0  0
    0.0000    0.0000    0.0000 H   0  0  0  0  0  0  0  0  0  0  0  0
    0.0000    0.0000    0.0000 H   0  0  0  0  0  0  0  0  0  0  0  0
    0.0000    0.0000    0.0000 H   0  0  0  0  0  0  0  0  0  0  0  0
    0.0000    0.0000    0.0000 H   0  0  0  0  0  0  0  0  0  0  0  0
    0.0000    0.0000    0.0000 H   0  0  0  0  0  0  0  0  0  0  0  0
    0.0000    0.0000    0.0000 H   0  0  0  0  0  0  0  0  0  0  0  0
    0.0000    0.0000    0.0000 H   0  0  0  0  0  0  0  0  0  0  0  0
    0.0000    0.0000    0.0000 H   0  0  0  0  0  0  0  0  0  0  0  0
    0.0000    0.0000    0.0000 H   0  0  0  0  0  0  0  0  0  0  0  0
    0.0000    0.0000    0.0000 H   0  0  0  0  0  0  0  0  0  0  0  0
    0.0000    0.0000    0.0000 H   0  0  0  0  0  0  0  0  0  0  0  0
  1  2  1  0
  2  3  1  0
  2  4  1  0
  4  5  1  0
  5  6  1  0
  1  7  1  0
  1  8  1  0
  1  9  1  0
  2 10  1  0
  3 11  1  0
  3 12  1  0
  3 13  1  0
  4 14  1  0
  4 15  1  0
  5 16  1  0
  5 17  1  0
  6 18  1  0
M  END
>  <partial_charges>  (272) 
-0.0907000005245
-0.0649999976158
-0.0907000005245
-0.081200003624
0.132799997926
-0.604600012302
0.0344000011683
0.0344000011683
0.0344000011683
0.0441000014544
0.0344000011683
0.0344000011683
0.0344000011683
0.0546000003815
0.0546000003815
0.0208000000566
0.0208000000566
0.397899985313

>  <partial_bond_orders>  (272) 
1.0
1.0
1.0
1.0
1.0
1.0
1.0
1.0
1.0
1.0
1.0
1.0
1.0
1.0
1.0
1.0
1.0

>  <atom_types>  (272) 
c3
c3
c3
c3
c3
oh
hc
hc
hc
hc
hc
hc
hc
hc
hc
h1
h1
ho

>  <target>  (272) 
-4.42

>  <cal>  (272) 
-3.237

$$$$
mobley_3187514
     RDKit          3D

 17 17  0  0  0  0  0  0  0  0999 V2000
    1.9560   -1.0270   -1.6050 C   0  0  0  0  0  0  0  0  0  0  0  0
    1.8850   -1.0360   -0.1120 C   0  0  0  0  0  0  0  0  0  0  0  0
    2.9210   -1.6310    0.6080 C   0  0  0  0  0  0  0  0  0  0  0  0
    2.8780   -1.6520    2.0020 C   0  0  0  0  0  0  0  0  0  0  0  0
    1.8000   -1.0790    2.6760 C   0  0  0  0  0  0  0  0  0  0  0  0
    0.7640   -0.4840    1.9550 C   0  0  0  0  0  0  0  0  0  0  0  0
    0.8070   -0.4630    0.5610 C   0  0  0  0  0  0  0  0  0  0  0  0
   -0.2510    0.1430   -0.1520 N   0  0  0  0  0  0  0  0  0  0  0  0
    0.0000    0.0000    0.0000 H   0  0  0  0  0  0  0  0  0  0  0  0
    0.0000    0.0000    0.0000 H   0  0  0  0  0  0  0  0  0  0  0  0
    0.0000    0.0000    0.0000 H   0  0  0  0  0  0  0  0  0  0  0  0
    0.0000    0.0000    0.0000 H   0  0  0  0  0  0  0  0  0  0  0  0
    0.0000    0.0000    0.0000 H   0  0  0  0  0  0  0  0  0  0  0  0
    0.0000    0.0000    0.0000 H   0  0  0  0  0  0  0  0  0  0  0  0
    0.0000    0.0000    0.0000 H   0  0  0  0  0  0  0  0  0  0  0  0
    0.0000    0.0000    0.0000 H   0  0  0  0  0  0  0  0  0  0  0  0
    0.0000    0.0000    0.0000 H   0  0  0  0  0  0  0  0  0  0  0  0
  1  2  1  0
  2  7  2  0
  2  3  1  0
  3  4  2  0
  4  5  1  0
  5  6  2  0
  6  7  1  0
  7  8  1  0
  1  9  1  0
  1 10  1  0
  1 11  1  0
  3 12  1  0
  4 13  1  0
  5 14  1  0
  6 15  1  0
  8 16  1  0
  8 17  1  0
M  END
>  <partial_charges>  (273) 
-0.048599999398
-0.136099994183
-0.0939000025392
-0.169900000095
-0.0966000035405
-0.190799996257
0.138699993491
-0.818700015545
0.0410999991
0.0410999991
0.0410999991
0.12839999795
0.130500003695
0.12839999795
0.129299998283
0.38789999485
0.38789999485

>  <partial_bond_orders>  (273) 
1.0
2.0
1.0
2.0
1.0
2.0
1.0
1.0
1.0
1.0
1.0
1.0
1.0
1.0
1.0
1.0
1.0

>  <atom_types>  (273) 
c3
ca
ca
ca
ca
ca
ca
nh
hc
hc
hc
ha
ha
ha
ha
hn
hn

>  <target>  (273) 
-5.53

>  <cal>  (273) 
-5.325

$$$$
mobley_2689721
     RDKit          3D

 18 18  0  0  0  0  0  0  0  0999 V2000
   -0.8670    0.5780   -1.0450 C   0  0  0  0  0  0  0  0  0  0  0  0
   -1.3840    0.3490    0.3730 C   0  0  0  0  0  0  0  0  0  0  0  0
   -0.2550    0.3960    1.3980 C   0  0  0  0  0  0  0  0  0  0  0  0
    0.8670   -0.5780    1.0450 C   0  0  0  0  0  0  0  0  0  0  0  0
    1.3840   -0.3490   -0.3730 C   0  0  0  0  0  0  0  0  0  0  0  0
    0.2550   -0.3960   -1.3980 C   0  0  0  0  0  0  0  0  0  0  0  0
    0.0000    0.0000    0.0000 H   0  0  0  0  0  0  0  0  0  0  0  0
    0.0000    0.0000    0.0000 H   0  0  0  0  0  0  0  0  0  0  0  0
    0.0000    0.0000    0.0000 H   0  0  0  0  0  0  0  0  0  0  0  0
    0.0000    0.0000    0.0000 H   0  0  0  0  0  0  0  0  0  0  0  0
    0.0000    0.0000    0.0000 H   0  0  0  0  0  0  0  0  0  0  0  0
    0.0000    0.0000    0.0000 H   0  0  0  0  0  0  0  0  0  0  0  0
    0.0000    0.0000    0.0000 H   0  0  0  0  0  0  0  0  0  0  0  0
    0.0000    0.0000    0.0000 H   0  0  0  0  0  0  0  0  0  0  0  0
    0.0000    0.0000    0.0000 H   0  0  0  0  0  0  0  0  0  0  0  0
    0.0000    0.0000    0.0000 H   0  0  0  0  0  0  0  0  0  0  0  0
    0.0000    0.0000    0.0000 H   0  0  0  0  0  0  0  0  0  0  0  0
    0.0000    0.0000    0.0000 H   0  0  0  0  0  0  0  0  0  0  0  0
  1  6  1  0
  1  2  1  0
  2  3  1  0
  3  4  1  0
  4  5  1  0
  5  6  1  0
  1  7  1  0
  1  8  1  0
  2  9  1  0
  2 10  1  0
  3 11  1  0
  3 12  1  0
  4 13  1  0
  4 14  1  0
  5 15  1  0
  5 16  1  0
  6 17  1  0
  6 18  1  0
M  END
>  <partial_charges>  (274) 
-0.0754999965429
-0.0754999965429
-0.0754999965429
-0.0754999965429
-0.0754999965429
-0.0754999965429
0.0377999991179
0.0377999991179
0.0377999991179
0.0377999991179
0.0377999991179
0.0377999991179
0.0377999991179
0.0377999991179
0.0377999991179
0.0377999991179
0.0377999991179
0.0377999991179

>  <partial_bond_orders>  (274) 
1.0
1.0
1.0
1.0
1.0
1.0
1.0
1.0
1.0
1.0
1.0
1.0
1.0
1.0
1.0
1.0
1.0
1.0

>  <atom_types>  (274) 
c3
c3
c3
c3
c3
c3
hc
hc
hc
hc
hc
hc
hc
hc
hc
hc
hc
hc

>  <target>  (274) 
1.23

>  <cal>  (274) 
1.503

$$$$
mobley_4494568
     RDKit          3D

 15 15  0  0  0  0  0  0  0  0999 V2000
    1.9310   -1.0140   -1.6030 C   0  0  0  0  0  0  0  0  0  0  0  0
    1.8850   -1.0360   -0.1120 C   0  0  0  0  0  0  0  0  0  0  0  0
    2.9210   -1.6310    0.6080 C   0  0  0  0  0  0  0  0  0  0  0  0
    2.8780   -1.6520    2.0020 C   0  0  0  0  0  0  0  0  0  0  0  0
    1.8000   -1.0790    2.6760 C   0  0  0  0  0  0  0  0  0  0  0  0
    0.7640   -0.4840    1.9550 C   0  0  0  0  0  0  0  0  0  0  0  0
    0.8070   -0.4630    0.5610 C   0  0  0  0  0  0  0  0  0  0  0  0
    1.7400   -1.1090    4.5640 Br  0  0  0  0  0  0  0  0  0  0  0  0
    0.0000    0.0000    0.0000 H   0  0  0  0  0  0  0  0  0  0  0  0
    0.0000    0.0000    0.0000 H   0  0  0  0  0  0  0  0  0  0  0  0
    0.0000    0.0000    0.0000 H   0  0  0  0  0  0  0  0  0  0  0  0
    0.0000    0.0000    0.0000 H   0  0  0  0  0  0  0  0  0  0  0  0
    0.0000    0.0000    0.0000 H   0  0  0  0  0  0  0  0  0  0  0  0
    0.0000    0.0000    0.0000 H   0  0  0  0  0  0  0  0  0  0  0  0
    0.0000    0.0000    0.0000 H   0  0  0  0  0  0  0  0  0  0  0  0
  1  2  1  0
  2  7  2  0
  2  3  1  0
  3  4  2  0
  4  5  1  0
  5  6  2  0
  6  7  1  0
  5  8  1  0
  1  9  1  0
  1 10  1  0
  1 11  1  0
  3 12  1  0
  4 13  1  0
  6 14  1  0
  7 15  1  0
M  END
>  <partial_charges>  (275) 
-0.0577000007033
-0.0619999989867
-0.132300004363
-0.0996000021696
-0.0317000001669
-0.0996000021696
-0.132300004363
-0.0917999967933
0.0476000010967
0.0476000010967
0.0476000010967
0.136800006032
0.145400002599
0.145400002599
0.136800006032

>  <partial_bond_orders>  (275) 
1.0
2.0
1.0
2.0
1.0
2.0
1.0
1.0
1.0
1.0
1.0
1.0
1.0
1.0
1.0

>  <atom_types>  (275) 
c3
ca
ca
ca
ca
ca
ca
br
hc
hc
hc
ha
ha
ha
ha

>  <target>  (275) 
-1.39

>  <cal>  (275) 
-0.894

$$$$
mobley_8723116
     RDKit          3D

 14 14  0  0  0  0  0  0  0  0999 V2000
    1.8850   -1.0360   -0.1120 C   0  0  0  0  0  0  0  0  0  0  0  0
    2.9210   -1.6310    0.6080 C   0  0  0  0  0  0  0  0  0  0  0  0
    2.8780   -1.6520    2.0020 C   0  0  0  0  0  0  0  0  0  0  0  0
    1.8000   -1.0790    2.6760 C   0  0  0  0  0  0  0  0  0  0  0  0
    0.7640   -0.4840    1.9550 C   0  0  0  0  0  0  0  0  0  0  0  0
    0.8070   -0.4630    0.5610 C   0  0  0  0  0  0  0  0  0  0  0  0
   -0.2400    0.1380   -0.1680 N   0  0  0  0  0  0  0  0  0  0  0  0
    4.1550   -2.3870    2.8910 Cl  0  0  0  0  0  0  0  0  0  0  0  0
    0.0000    0.0000    0.0000 H   0  0  0  0  0  0  0  0  0  0  0  0
    0.0000    0.0000    0.0000 H   0  0  0  0  0  0  0  0  0  0  0  0
    0.0000    0.0000    0.0000 H   0  0  0  0  0  0  0  0  0  0  0  0
    0.0000    0.0000    0.0000 H   0  0  0  0  0  0  0  0  0  0  0  0
    0.0000    0.0000    0.0000 H   0  0  0  0  0  0  0  0  0  0  0  0
    0.0000    0.0000    0.0000 H   0  0  0  0  0  0  0  0  0  0  0  0
  1  6  2  0
  1  2  1  0
  2  3  2  0
  3  4  1  0
  4  5  2  0
  5  6  1  0
  6  7  1  0
  3  8  1  0
  1  9  1  0
  2 10  1  0
  4 11  1  0
  5 12  1  0
  7 13  1  0
  7 14  1  0
M  END
>  <partial_charges>  (276) 
-0.187800005078
-0.0838999971747
-0.0291000008583
-0.0838999971747
-0.187800005078
0.14849999547
-0.824899971485
-0.101300001144
0.13560000062
0.144700005651
0.144700005651
0.13560000062
0.394899994135
0.394899994135

>  <partial_bond_orders>  (276) 
2.0
1.0
2.0
1.0
2.0
1.0
1.0
1.0
1.0
1.0
1.0
1.0
1.0
1.0

>  <atom_types>  (276) 
ca
ca
ca
ca
ca
ca
nh
cl
ha
ha
ha
ha
hn
hn

>  <target>  (276) 
-5.9

>  <cal>  (276) 
-5.281

$$$$
mobley_5977084
     RDKit          3D

 14 14  0  0  0  0  0  0  0  0999 V2000
    2.8850   -0.2670    3.6510 C   0  0  0  0  0  0  0  0  0  0  0  0
    1.6520   -0.6230    2.9000 C   0  0  0  0  0  0  0  0  0  0  0  0
    1.3880   -0.0680    1.6520 C   0  0  0  0  0  0  0  0  0  0  0  0
    0.2270   -0.4200    0.9730 C   0  0  0  0  0  0  0  0  0  0  0  0
   -0.6320   -1.3220    1.5800 C   0  0  0  0  0  0  0  0  0  0  0  0
   -0.4090   -1.8820    2.7910 N   0  0  0  0  0  0  0  0  0  0  0  0
    0.7300   -1.5160    3.4210 C   0  0  0  0  0  0  0  0  0  0  0  0
    0.0000    0.0000    0.0000 H   0  0  0  0  0  0  0  0  0  0  0  0
    0.0000    0.0000    0.0000 H   0  0  0  0  0  0  0  0  0  0  0  0
    0.0000    0.0000    0.0000 H   0  0  0  0  0  0  0  0  0  0  0  0
    0.0000    0.0000    0.0000 H   0  0  0  0  0  0  0  0  0  0  0  0
    0.0000    0.0000    0.0000 H   0  0  0  0  0  0  0  0  0  0  0  0
    0.0000    0.0000    0.0000 H   0  0  0  0  0  0  0  0  0  0  0  0
    0.0000    0.0000    0.0000 H   0  0  0  0  0  0  0  0  0  0  0  0
  1  2  1  0
  2  7  2  0
  2  3  1  0
  3  4  2  0
  4  5  1  0
  5  6  2  0
  6  7  1  0
  1  8  1  0
  1  9  1  0
  1 10  1  0
  3 11  1  0
  4 12  1  0
  5 13  1  0
  7 14  1  0
M  END
>  <partial_charges>  (277) 
-0.0502999983728
-0.191599994898
-0.0966999977827
-0.242200002074
0.387400001287
-0.662000000477
0.392599999905
0.0469999983907
0.0469999983907
0.0469999983907
0.137099996209
0.142499998212
0.0209999997169
0.0212999992073

>  <partial_bond_orders>  (277) 
1.0
2.0
1.0
2.0
1.0
2.0
1.0
1.0
1.0
1.0
1.0
1.0
1.0
1.0

>  <atom_types>  (277) 
c3
ca
ca
ca
ca
nb
ca
hc
hc
hc
ha
ha
h4
h4

>  <target>  (277) 
-4.77

>  <cal>  (277) 
-3.221

$$$$
mobley_4883284
     RDKit          3D

 14 14  0  0  0  0  0  0  0  0999 V2000
    1.8850   -1.0360   -0.1120 C   0  0  0  0  0  0  0  0  0  0  0  0
    2.9210   -1.6310    0.6080 C   0  0  0  0  0  0  0  0  0  0  0  0
    2.8780   -1.6520    2.0020 C   0  0  0  0  0  0  0  0  0  0  0  0
    1.8000   -1.0790    2.6760 C   0  0  0  0  0  0  0  0  0  0  0  0
    0.7640   -0.4840    1.9550 C   0  0  0  0  0  0  0  0  0  0  0  0
    0.8070   -0.4630    0.5610 C   0  0  0  0  0  0  0  0  0  0  0  0
    1.7570   -1.1000    4.0850 N   0  0  0  0  0  0  0  0  0  0  0  0
    0.0000    0.0000    0.0000 H   0  0  0  0  0  0  0  0  0  0  0  0
    0.0000    0.0000    0.0000 H   0  0  0  0  0  0  0  0  0  0  0  0
    0.0000    0.0000    0.0000 H   0  0  0  0  0  0  0  0  0  0  0  0
    0.0000    0.0000    0.0000 H   0  0  0  0  0  0  0  0  0  0  0  0
    0.0000    0.0000    0.0000 H   0  0  0  0  0  0  0  0  0  0  0  0
    0.0000    0.0000    0.0000 H   0  0  0  0  0  0  0  0  0  0  0  0
    0.0000    0.0000    0.0000 H   0  0  0  0  0  0  0  0  0  0  0  0
  1  6  2  0
  1  2  1  0
  2  3  2  0
  3  4  1  0
  4  5  2  0
  5  6  1  0
  4  7  1  0
  1  8  1  0
  2  9  1  0
  3 10  1  0
  5 11  1  0
  6 12  1  0
  7 13  1  0
  7 14  1  0
M  END
>  <partial_charges>  (278) 
-0.172199994326
-0.0939999967813
-0.188899993896
0.132300004363
-0.188899993896
-0.0939999967813
-0.812699973583
0.129800006747
0.129299998283
0.130400002003
0.130400002003
0.129299998283
0.384600013494
0.384600013494

>  <partial_bond_orders>  (278) 
2.0
1.0
2.0
1.0
2.0
1.0
1.0
1.0
1.0
1.0
1.0
1.0
1.0
1.0

>  <atom_types>  (278) 
ca
ca
ca
ca
ca
ca
nh
ha
ha
ha
ha
ha
hn
hn

>  <target>  (278) 
-5.49

>  <cal>  (278) 
-5.543

$$$$
mobley_3709920
     RDKit          3D

 27 26  0  0  0  0  0  0  0  0999 V2000
    2.8540   -3.0080    2.2040 C   0  0  0  0  0  0  0  0  0  0  0  0
    1.4670   -2.4530    1.9210 C   0  0  0  0  0  0  0  0  0  0  0  0
    1.5260   -1.2610    0.9650 C   0  0  0  0  0  0  0  0  0  0  0  0
    0.1290   -0.7050    0.6830 C   0  0  0  0  0  0  0  0  0  0  0  0
    0.1880    0.4870   -0.2740 C   0  0  0  0  0  0  0  0  0  0  0  0
   -1.2090    1.0430   -0.5560 C   0  0  0  0  0  0  0  0  0  0  0  0
   -1.1490    2.2360   -1.5130 C   0  0  0  0  0  0  0  0  0  0  0  0
   -2.5180    2.7820   -1.7900 C   0  0  0  0  0  0  0  0  0  0  0  0
   -3.0660    2.8430   -3.0090 C   0  0  0  0  0  0  0  0  0  0  0  0
    0.0000    0.0000    0.0000 H   0  0  0  0  0  0  0  0  0  0  0  0
    0.0000    0.0000    0.0000 H   0  0  0  0  0  0  0  0  0  0  0  0
    0.0000    0.0000    0.0000 H   0  0  0  0  0  0  0  0  0  0  0  0
    0.0000    0.0000    0.0000 H   0  0  0  0  0  0  0  0  0  0  0  0
    0.0000    0.0000    0.0000 H   0  0  0  0  0  0  0  0  0  0  0  0
    0.0000    0.0000    0.0000 H   0  0  0  0  0  0  0  0  0  0  0  0
    0.0000    0.0000    0.0000 H   0  0  0  0  0  0  0  0  0  0  0  0
    0.0000    0.0000    0.0000 H   0  0  0  0  0  0  0  0  0  0  0  0
    0.0000    0.0000    0.0000 H   0  0  0  0  0  0  0  0  0  0  0  0
    0.0000    0.0000    0.0000 H   0  0  0  0  0  0  0  0  0  0  0  0
    0.0000    0.0000    0.0000 H   0  0  0  0  0  0  0  0  0  0  0  0
    0.0000    0.0000    0.0000 H   0  0  0  0  0  0  0  0  0  0  0  0
    0.0000    0.0000    0.0000 H   0  0  0  0  0  0  0  0  0  0  0  0
    0.0000    0.0000    0.0000 H   0  0  0  0  0  0  0  0  0  0  0  0
    0.0000    0.0000    0.0000 H   0  0  0  0  0  0  0  0  0  0  0  0
    0.0000    0.0000    0.0000 H   0  0  0  0  0  0  0  0  0  0  0  0
    0.0000    0.0000    0.0000 H   0  0  0  0  0  0  0  0  0  0  0  0
    0.0000    0.0000    0.0000 H   0  0  0  0  0  0  0  0  0  0  0  0
  1  2  1  0
  2  3  1  0
  3  4  1  0
  4  5  1  0
  5  6  1  0
  6  7  1  0
  7  8  1  0
  8  9  2  3
  1 10  1  0
  1 11  1  0
  1 12  1  0
  2 13  1  0
  2 14  1  0
  3 15  1  0
  3 16  1  0
  4 17  1  0
  4 18  1  0
  5 19  1  0
  5 20  1  0
  6 21  1  0
  6 22  1  0
  7 23  1  0
  7 24  1  0
  8 25  1  0
  9 26  1  0
  9 27  1  0
M  END
>  <partial_charges>  (279) 
-0.0936999991536
-0.0799999982119
-0.0769999995828
-0.0782999992371
-0.0754999965429
-0.0722000002861
-0.0581000000238
-0.163499996066
-0.223700001836
0.0324999988079
0.0324999988079
0.0324999988079
0.0392000004649
0.0392000004649
0.0379999987781
0.0379999987781
0.0392000004649
0.0392000004649
0.0392999984324
0.0392999984324
0.0417999997735
0.0417999997735
0.0463999994099
0.0463999994099
0.117200002074
0.109800003469
0.109800003469

>  <partial_bond_orders>  (279) 
1.0
1.0
1.0
1.0
1.0
1.0
1.0
2.0
1.0
1.0
1.0
1.0
1.0
1.0
1.0
1.0
1.0
1.0
1.0
1.0
1.0
1.0
1.0
1.0
1.0
1.0

>  <atom_types>  (279) 
c3
c3
c3
c3
c3
c3
c3
c2
c2
hc
hc
hc
hc
hc
hc
hc
hc
hc
hc
hc
hc
hc
hc
hc
ha
ha
ha

>  <target>  (279) 
2.06

>  <cal>  (279) 
2.995

$$$$
mobley_8260524
     RDKit          3D

  7  6  0  0  0  0  0  0  0  0999 V2000
   -0.7150    0.3700   -0.7410 C   0  0  0  0  0  0  0  0  0  0  0  0
   -0.6480    1.8280   -0.8450 C   0  0  0  0  0  0  0  0  0  0  0  0
   -0.5940    3.0240   -0.9300 C   0  0  0  0  0  0  0  0  0  0  0  0
    0.0000    0.0000    0.0000 H   0  0  0  0  0  0  0  0  0  0  0  0
    0.0000    0.0000    0.0000 H   0  0  0  0  0  0  0  0  0  0  0  0
    0.0000    0.0000    0.0000 H   0  0  0  0  0  0  0  0  0  0  0  0
    0.0000    0.0000    0.0000 H   0  0  0  0  0  0  0  0  0  0  0  0
  1  2  1  0
  2  3  3  0
  1  4  1  0
  1  5  1  0
  1  6  1  0
  3  7  1  0
M  END
>  <partial_charges>  (280) 
-0.0220999997109
-0.139300003648
-0.163499996066
0.0538999997079
0.0538999997079
0.0538999997079
0.163299992681

>  <partial_bond_orders>  (280) 
1.0
3.0
1.0
1.0
1.0
1.0

>  <atom_types>  (280) 
c3
c1
c1
hc
hc
hc
ha

>  <target>  (280) 
-0.48

>  <cal>  (280) 
0.065

$$$$
mobley_9478823
     RDKit          3D

 18 18  0  0  0  0  0  0  0  0999 V2000
    1.9530   -1.0260   -1.6040 C   0  0  0  0  0  0  0  0  0  0  0  0
    1.8850   -1.0360   -0.1120 C   0  0  0  0  0  0  0  0  0  0  0  0
    2.9210   -1.6310    0.6080 C   0  0  0  0  0  0  0  0  0  0  0  0
    2.8780   -1.6520    2.0020 C   0  0  0  0  0  0  0  0  0  0  0  0
    1.8000   -1.0790    2.6760 C   0  0  0  0  0  0  0  0  0  0  0  0
    0.7640   -0.4840    1.9550 C   0  0  0  0  0  0  0  0  0  0  0  0
    0.8070   -0.4630    0.5610 C   0  0  0  0  0  0  0  0  0  0  0  0
   -0.3140    0.1790   -0.1890 C   0  0  0  0  0  0  0  0  0  0  0  0
    0.0000    0.0000    0.0000 H   0  0  0  0  0  0  0  0  0  0  0  0
    0.0000    0.0000    0.0000 H   0  0  0  0  0  0  0  0  0  0  0  0
    0.0000    0.0000    0.0000 H   0  0  0  0  0  0  0  0  0  0  0  0
    0.0000    0.0000    0.0000 H   0  0  0  0  0  0  0  0  0  0  0  0
    0.0000    0.0000    0.0000 H   0  0  0  0  0  0  0  0  0  0  0  0
    0.0000    0.0000    0.0000 H   0  0  0  0  0  0  0  0  0  0  0  0
    0.0000    0.0000    0.0000 H   0  0  0  0  0  0  0  0  0  0  0  0
    0.0000    0.0000    0.0000 H   0  0  0  0  0  0  0  0  0  0  0  0
    0.0000    0.0000    0.0000 H   0  0  0  0  0  0  0  0  0  0  0  0
    0.0000    0.0000    0.0000 H   0  0  0  0  0  0  0  0  0  0  0  0
  1  2  1  0
  2  7  2  0
  2  3  1  0
  3  4  2  0
  4  5  1  0
  5  6  2  0
  6  7  1  0
  7  8  1  0
  1  9  1  0
  1 10  1  0
  1 11  1  0
  3 12  1  0
  4 13  1  0
  5 14  1  0
  6 15  1  0
  8 16  1  0
  8 17  1  0
  8 18  1  0
M  END
>  <partial_charges>  (281) 
-0.0540000014007
-0.0751999989152
-0.128900006413
-0.130899995565
-0.130899995565
-0.128900006413
-0.0751999989152
-0.0538999997079
0.043299999088
0.043299999088
0.043299999088
0.129199996591
0.129800006747
0.129800006747
0.129199996591
0.043299999088
0.043299999088
0.043299999088

>  <partial_bond_orders>  (281) 
1.0
2.0
1.0
2.0
1.0
2.0
1.0
1.0
1.0
1.0
1.0
1.0
1.0
1.0
1.0
1.0
1.0
1.0

>  <atom_types>  (281) 
c3
ca
ca
ca
ca
ca
ca
c3
hc
hc
hc
ha
ha
ha
ha
hc
hc
hc

>  <target>  (281) 
-0.9

>  <cal>  (281) 
-0.851

$$$$
mobley_9733743
     RDKit          3D

 16 15  0  0  0  0  0  0  0  0999 V2000
   -0.5040    0.9670   -0.1070 C   0  0  0  0  0  0  0  0  0  0  0  0
   -1.0390    1.4310    1.2390 C   0  0  0  0  0  0  0  0  0  0  0  0
   -1.8130    2.7450    1.1090 C   0  0  0  0  0  0  0  0  0  0  0  0
   -2.3630    3.2360    2.4450 C   0  0  0  0  0  0  0  0  0  0  0  0
   -3.0890    4.4690    2.3190 N   0  0  0  0  0  0  0  0  0  0  0  0
    0.0000    0.0000    0.0000 H   0  0  0  0  0  0  0  0  0  0  0  0
    0.0000    0.0000    0.0000 H   0  0  0  0  0  0  0  0  0  0  0  0
    0.0000    0.0000    0.0000 H   0  0  0  0  0  0  0  0  0  0  0  0
    0.0000    0.0000    0.0000 H   0  0  0  0  0  0  0  0  0  0  0  0
    0.0000    0.0000    0.0000 H   0  0  0  0  0  0  0  0  0  0  0  0
    0.0000    0.0000    0.0000 H   0  0  0  0  0  0  0  0  0  0  0  0
    0.0000    0.0000    0.0000 H   0  0  0  0  0  0  0  0  0  0  0  0
    0.0000    0.0000    0.0000 H   0  0  0  0  0  0  0  0  0  0  0  0
    0.0000    0.0000    0.0000 H   0  0  0  0  0  0  0  0  0  0  0  0
    0.0000    0.0000    0.0000 H   0  0  0  0  0  0  0  0  0  0  0  0
    0.0000    0.0000    0.0000 H   0  0  0  0  0  0  0  0  0  0  0  0
  1  2  1  0
  2  3  1  0
  3  4  1  0
  4  5  1  0
  1  6  1  0
  1  7  1  0
  1  8  1  0
  2  9  1  0
  2 10  1  0
  3 11  1  0
  3 12  1  0
  4 13  1  0
  4 14  1  0
  5 15  1  0
  5 16  1  0
M  END
>  <partial_charges>  (282) 
-0.0936999991536
-0.0750999972224
-0.122599996626
0.149200007319
-0.904799997807
0.0333000011742
0.0333000011742
0.0333000011742
0.0408999994397
0.0408999994397
0.0375999994576
0.0375999994576
0.0513000003994
0.0513000003994
0.343699991703
0.343699991703

>  <partial_bond_orders>  (282) 
1.0
1.0
1.0
1.0
1.0
1.0
1.0
1.0
1.0
1.0
1.0
1.0
1.0
1.0
1.0

>  <atom_types>  (282) 
c3
c3
c3
c3
n3
hc
hc
hc
hc
hc
hc
hc
h1
h1
hn
hn

>  <target>  (282) 
-4.24

>  <cal>  (282) 
-2.961

$$$$
mobley_7688753
     RDKit          3D

 15 15  0  0  0  0  0  0  0  0999 V2000
    1.8850   -1.0360   -0.1120 C   0  0  0  0  0  0  0  0  0  0  0  0
    2.9210   -1.6310    0.6080 C   0  0  0  0  0  0  0  0  0  0  0  0
    2.8780   -1.6520    2.0020 C   0  0  0  0  0  0  0  0  0  0  0  0
    1.8000   -1.0790    2.6760 C   0  0  0  0  0  0  0  0  0  0  0  0
    0.7640   -0.4840    1.9550 C   0  0  0  0  0  0  0  0  0  0  0  0
    0.8070   -0.4630    0.5610 C   0  0  0  0  0  0  0  0  0  0  0  0
   -0.2880    0.0750    2.6120 O   0  0  0  0  0  0  0  0  0  0  0  0
    3.9590   -2.2700    2.7540 C   0  0  0  0  0  0  0  0  0  0  0  0
    4.9400   -2.7920    2.2170 O   0  0  0  0  0  0  0  0  0  0  0  0
    0.0000    0.0000    0.0000 H   0  0  0  0  0  0  0  0  0  0  0  0
    0.0000    0.0000    0.0000 H   0  0  0  0  0  0  0  0  0  0  0  0
    0.0000    0.0000    0.0000 H   0  0  0  0  0  0  0  0  0  0  0  0
    0.0000    0.0000    0.0000 H   0  0  0  0  0  0  0  0  0  0  0  0
    0.0000    0.0000    0.0000 H   0  0  0  0  0  0  0  0  0  0  0  0
    0.0000    0.0000    0.0000 H   0  0  0  0  0  0  0  0  0  0  0  0
  1  6  2  0
  1  2  1  0
  2  3  2  0
  3  4  1  0
  4  5  2  0
  5  6  1  0
  5  7  1  0
  3  8  1  0
  8  9  2  0
  1 10  1  0
  2 11  1  0
  4 12  1  0
  6 13  1  0
  7 14  1  0
  8 15  1  0
M  END
>  <partial_charges>  (283) 
-0.106600001454
-0.106799997389
-0.164599999785
-0.115699999034
0.110399998724
-0.183599993587
-0.496800005436
0.57539999485
-0.523699998856
0.139300003648
0.157499998808
0.152799993753
0.138099998236
0.421600013971
0.00249999994412

>  <partial_bond_orders>  (283) 
2.0
1.0
2.0
1.0
2.0
1.0
1.0
1.0
2.0
1.0
1.0
1.0
1.0
1.0
1.0

>  <atom_types>  (283) 
ca
ca
ca
ca
ca
ca
oh
c
o
ha
ha
ha
ha
ho
h4

>  <target>  (283) 
-9.52

>  <cal>  (283) 
-9.369

$$$$
mobley_9055303
     RDKit          3D

  5  4  0  0  0  0  0  0  0  0999 V2000
   -0.0000   -0.0000    0.0000 C   0  0  0  0  0  0  0  0  0  0  0  0
    0.0000    0.0000    0.0000 H   0  0  0  0  0  0  0  0  0  0  0  0
    0.0000    0.0000    0.0000 H   0  0  0  0  0  0  0  0  0  0  0  0
    0.0000    0.0000    0.0000 H   0  0  0  0  0  0  0  0  0  0  0  0
    0.0000    0.0000    0.0000 H   0  0  0  0  0  0  0  0  0  0  0  0
  1  2  1  0
  1  3  1  0
  1  4  1  0
  1  5  1  0
M  END
>  <partial_charges>  (284) 
-0.10869999975
0.0272000003606
0.0272000003606
0.0272000003606
0.0272000003606

>  <partial_bond_orders>  (284) 
1.0
1.0
1.0
1.0

>  <atom_types>  (284) 
c3
hc
hc
hc
hc

>  <target>  (284) 
2.0

>  <cal>  (284) 
2.446

$$$$
mobley_5072416
     RDKit          3D

 18 18  0  0  0  0  0  0  0  0999 V2000
    1.3610   -2.1340   -2.1490 C   0  0  0  0  0  0  0  0  0  0  0  0
    1.9460   -1.0260   -1.4740 O   0  0  0  0  0  0  0  0  0  0  0  0
    1.8850   -1.0360   -0.1120 C   0  0  0  0  0  0  0  0  0  0  0  0
    2.9210   -1.6310    0.6080 C   0  0  0  0  0  0  0  0  0  0  0  0
    2.8780   -1.6520    2.0020 C   0  0  0  0  0  0  0  0  0  0  0  0
    1.8000   -1.0790    2.6760 C   0  0  0  0  0  0  0  0  0  0  0  0
    0.7640   -0.4840    1.9550 C   0  0  0  0  0  0  0  0  0  0  0  0
    0.8070   -0.4630    0.5610 C   0  0  0  0  0  0  0  0  0  0  0  0
   -0.2490    0.1420   -0.1560 N   0  0  0  0  0  0  0  0  0  0  0  0
    0.0000    0.0000    0.0000 H   0  0  0  0  0  0  0  0  0  0  0  0
    0.0000    0.0000    0.0000 H   0  0  0  0  0  0  0  0  0  0  0  0
    0.0000    0.0000    0.0000 H   0  0  0  0  0  0  0  0  0  0  0  0
    0.0000    0.0000    0.0000 H   0  0  0  0  0  0  0  0  0  0  0  0
    0.0000    0.0000    0.0000 H   0  0  0  0  0  0  0  0  0  0  0  0
    0.0000    0.0000    0.0000 H   0  0  0  0  0  0  0  0  0  0  0  0
    0.0000    0.0000    0.0000 H   0  0  0  0  0  0  0  0  0  0  0  0
    0.0000    0.0000    0.0000 H   0  0  0  0  0  0  0  0  0  0  0  0
    0.0000    0.0000    0.0000 H   0  0  0  0  0  0  0  0  0  0  0  0
  1  2  1  0
  2  3  1  0
  3  8  2  0
  3  4  1  0
  4  5  2  0
  5  6  1  0
  6  7  2  0
  7  8  1  0
  8  9  1  0
  1 10  1  0
  1 11  1  0
  1 12  1  0
  4 13  1  0
  5 14  1  0
  6 15  1  0
  7 16  1  0
  9 17  1  0
  9 18  1  0
M  END
>  <partial_charges>  (285) 
0.115999996662
-0.352699995041
0.0261000003666
-0.102700002491
-0.164299994707
-0.0983000025153
-0.186199992895
0.128999993205
-0.812900006771
0.0399999991059
0.0399999991059
0.0399999991059
0.141800001264
0.133900001645
0.130600005388
0.132499992847
0.39359998703
0.39359998703

>  <partial_bond_orders>  (285) 
1.0
1.0
2.0
1.0
2.0
1.0
2.0
1.0
1.0
1.0
1.0
1.0
1.0
1.0
1.0
1.0
1.0
1.0

>  <atom_types>  (285) 
c3
os
ca
ca
ca
ca
ca
ca
nh
h1
h1
h1
ha
ha
ha
ha
hn
hn

>  <target>  (285) 
-6.12

>  <cal>  (285) 
-6.771

$$$$
mobley_1520842
     RDKit          3D

 14 14  0  0  0  0  0  0  0  0999 V2000
    2.3470    0.8980    1.0440 C   0  0  0  0  0  0  0  0  0  0  0  0
    1.3880   -0.0680    1.6520 C   0  0  0  0  0  0  0  0  0  0  0  0
    0.2270   -0.4200    0.9730 C   0  0  0  0  0  0  0  0  0  0  0  0
   -0.6320   -1.3220    1.5800 C   0  0  0  0  0  0  0  0  0  0  0  0
   -0.4090   -1.8820    2.7910 N   0  0  0  0  0  0  0  0  0  0  0  0
    0.7300   -1.5160    3.4210 C   0  0  0  0  0  0  0  0  0  0  0  0
    1.6520   -0.6230    2.9000 C   0  0  0  0  0  0  0  0  0  0  0  0
    0.0000    0.0000    0.0000 H   0  0  0  0  0  0  0  0  0  0  0  0
    0.0000    0.0000    0.0000 H   0  0  0  0  0  0  0  0  0  0  0  0
    0.0000    0.0000    0.0000 H   0  0  0  0  0  0  0  0  0  0  0  0
    0.0000    0.0000    0.0000 H   0  0  0  0  0  0  0  0  0  0  0  0
    0.0000    0.0000    0.0000 H   0  0  0  0  0  0  0  0  0  0  0  0
    0.0000    0.0000    0.0000 H   0  0  0  0  0  0  0  0  0  0  0  0
    0.0000    0.0000    0.0000 H   0  0  0  0  0  0  0  0  0  0  0  0
  1  2  1  0
  2  7  2  0
  2  3  1  0
  3  4  2  0
  4  5  1  0
  5  6  2  0
  6  7  1  0
  1  8  1  0
  1  9  1  0
  1 10  1  0
  3 11  1  0
  4 12  1  0
  6 13  1  0
  7 14  1  0
M  END
>  <partial_charges>  (286) 
-0.0619000010192
-0.0386999994516
-0.249200001359
0.395599991083
-0.667500019073
0.395599991083
-0.249200001359
0.0498000010848
0.0498000010848
0.0498000010848
0.142700001597
0.020300000906
0.020300000906
0.142700001597

>  <partial_bond_orders>  (286) 
1.0
2.0
1.0
2.0
1.0
2.0
1.0
1.0
1.0
1.0
1.0
1.0
1.0
1.0

>  <atom_types>  (286) 
c3
ca
ca
ca
nb
ca
ca
hc
hc
hc
ha
h4
h4
ha

>  <target>  (286) 
-4.93

>  <cal>  (286) 
-3.343

$$$$
mobley_664966
     RDKit          3D

  5  4  0  0  0  0  0  0  0  0999 V2000
   -0.0890    0.2170    0.0770 C   0  0  0  0  0  0  0  0  0  0  0  0
   -1.2170   -1.4270   -0.6450 I   0  0  0  0  0  0  0  0  0  0  0  0
    1.9500   -0.3610    0.0080 I   0  0  0  0  0  0  0  0  0  0  0  0
    0.0000    0.0000    0.0000 H   0  0  0  0  0  0  0  0  0  0  0  0
    0.0000    0.0000    0.0000 H   0  0  0  0  0  0  0  0  0  0  0  0
  1  2  1  0
  1  3  1  0
  1  4  1  0
  1  5  1  0
M  END
>  <partial_charges>  (287) 
0.152899995446
-0.179399996996
-0.179399996996
0.102899998426
0.102899998426

>  <partial_bond_orders>  (287) 
1.0
1.0
1.0
1.0

>  <atom_types>  (287) 
c3
i
i
h2
h2

>  <target>  (287) 
-2.49

>  <cal>  (287) 
-1.882

$$$$
mobley_4687447
     RDKit          3D

 19 18  0  0  0  0  0  0  0  0999 V2000
   -0.0020   -0.6660    0.8690 C   0  0  0  0  0  0  0  0  0  0  0  0
    1.2440   -0.4430    1.7060 C   0  0  0  0  0  0  0  0  0  0  0  0
    1.2750   -1.3490    2.9270 C   0  0  0  0  0  0  0  0  0  0  0  0
    2.4630   -1.0900    3.6620 O   0  0  0  0  0  0  0  0  0  0  0  0
    2.5500   -1.9090    4.8200 C   0  0  0  0  0  0  0  0  0  0  0  0
    3.8340   -1.5870    5.5600 C   0  0  0  0  0  0  0  0  0  0  0  0
    4.9400   -1.8430    4.7030 O   0  0  0  0  0  0  0  0  0  0  0  0
    0.0000    0.0000    0.0000 H   0  0  0  0  0  0  0  0  0  0  0  0
    0.0000    0.0000    0.0000 H   0  0  0  0  0  0  0  0  0  0  0  0
    0.0000    0.0000    0.0000 H   0  0  0  0  0  0  0  0  0  0  0  0
    0.0000    0.0000    0.0000 H   0  0  0  0  0  0  0  0  0  0  0  0
    0.0000    0.0000    0.0000 H   0  0  0  0  0  0  0  0  0  0  0  0
    0.0000    0.0000    0.0000 H   0  0  0  0  0  0  0  0  0  0  0  0
    0.0000    0.0000    0.0000 H   0  0  0  0  0  0  0  0  0  0  0  0
    0.0000    0.0000    0.0000 H   0  0  0  0  0  0  0  0  0  0  0  0
    0.0000    0.0000    0.0000 H   0  0  0  0  0  0  0  0  0  0  0  0
    0.0000    0.0000    0.0000 H   0  0  0  0  0  0  0  0  0  0  0  0
    0.0000    0.0000    0.0000 H   0  0  0  0  0  0  0  0  0  0  0  0
    0.0000    0.0000    0.0000 H   0  0  0  0  0  0  0  0  0  0  0  0
  1  2  1  0
  2  3  1  0
  3  4  1  0
  4  5  1  0
  5  6  1  0
  6  7  1  0
  1  8  1  0
  1  9  1  0
  1 10  1  0
  2 11  1  0
  2 12  1  0
  3 13  1  0
  3 14  1  0
  5 15  1  0
  5 16  1  0
  6 17  1  0
  6 18  1  0
  7 19  1  0
M  END
>  <partial_charges>  (288) 
-0.0923999994993
-0.0816000029445
0.128700003028
-0.418399989605
0.090499997139
0.125
-0.593400001526
0.0377000011504
0.0377000011504
0.0377000011504
0.048599999398
0.048599999398
0.0280000008643
0.0280000008643
0.0302000008523
0.0302000008523
0.0593000017107
0.0593000017107
0.396400004625

>  <partial_bond_orders>  (288) 
1.0
1.0
1.0
1.0
1.0
1.0
1.0
1.0
1.0
1.0
1.0
1.0
1.0
1.0
1.0
1.0
1.0
1.0

>  <atom_types>  (288) 
c3
c3
c3
os
c3
c3
oh
hc
hc
hc
hc
hc
h1
h1
h1
h1
h1
h1
ho

>  <target>  (288) 
-6.4

>  <cal>  (288) 
-3.94

$$$$
mobley_588781
     RDKit          3D

 30 30  0  0  0  0  0  0  0  0999 V2000
    0.5660   -0.3060   -0.8830 C   0  0  0  0  0  0  0  0  0  0  0  0
   -0.1250    0.1510   -2.1590 C   0  0  0  0  0  0  0  0  0  0  0  0
   -1.5240   -0.4520   -2.2840 C   0  0  0  0  0  0  0  0  0  0  0  0
   -2.2160    0.0100   -3.5680 C   0  0  0  0  0  0  0  0  0  0  0  0
   -3.6160   -0.5930   -3.6930 C   0  0  0  0  0  0  0  0  0  0  0  0
   -4.3060   -0.1300   -4.9780 C   0  0  0  0  0  0  0  0  0  0  0  0
   -5.6780   -0.7130   -5.1130 C   0  0  0  0  0  0  0  0  0  0  0  0
   -5.8560   -1.9330   -5.7650 C   0  0  0  0  0  0  0  0  0  0  0  0
   -7.1350   -2.4770   -5.8910 C   0  0  0  0  0  0  0  0  0  0  0  0
   -8.2350   -1.8000   -5.3640 C   0  0  0  0  0  0  0  0  0  0  0  0
   -8.0570   -0.5800   -4.7120 C   0  0  0  0  0  0  0  0  0  0  0  0
   -6.7790   -0.0370   -4.5860 C   0  0  0  0  0  0  0  0  0  0  0  0
    0.0000    0.0000    0.0000 H   0  0  0  0  0  0  0  0  0  0  0  0
    0.0000    0.0000    0.0000 H   0  0  0  0  0  0  0  0  0  0  0  0
    0.0000    0.0000    0.0000 H   0  0  0  0  0  0  0  0  0  0  0  0
    0.0000    0.0000    0.0000 H   0  0  0  0  0  0  0  0  0  0  0  0
    0.0000    0.0000    0.0000 H   0  0  0  0  0  0  0  0  0  0  0  0
    0.0000    0.0000    0.0000 H   0  0  0  0  0  0  0  0  0  0  0  0
    0.0000    0.0000    0.0000 H   0  0  0  0  0  0  0  0  0  0  0  0
    0.0000    0.0000    0.0000 H   0  0  0  0  0  0  0  0  0  0  0  0
    0.0000    0.0000    0.0000 H   0  0  0  0  0  0  0  0  0  0  0  0
    0.0000    0.0000    0.0000 H   0  0  0  0  0  0  0  0  0  0  0  0
    0.0000    0.0000    0.0000 H   0  0  0  0  0  0  0  0  0  0  0  0
    0.0000    0.0000    0.0000 H   0  0  0  0  0  0  0  0  0  0  0  0
    0.0000    0.0000    0.0000 H   0  0  0  0  0  0  0  0  0  0  0  0
    0.0000    0.0000    0.0000 H   0  0  0  0  0  0  0  0  0  0  0  0
    0.0000    0.0000    0.0000 H   0  0  0  0  0  0  0  0  0  0  0  0
    0.0000    0.0000    0.0000 H   0  0  0  0  0  0  0  0  0  0  0  0
    0.0000    0.0000    0.0000 H   0  0  0  0  0  0  0  0  0  0  0  0
    0.0000    0.0000    0.0000 H   0  0  0  0  0  0  0  0  0  0  0  0
  1  2  1  0
  2  3  1  0
  3  4  1  0
  4  5  1  0
  5  6  1  0
  6  7  1  0
  7 12  2  0
  7  8  1  0
  8  9  2  0
  9 10  1  0
 10 11  2  0
 11 12  1  0
  1 13  1  0
  1 14  1  0
  1 15  1  0
  2 16  1  0
  2 17  1  0
  3 18  1  0
  3 19  1  0
  4 20  1  0
  4 21  1  0
  5 22  1  0
  5 23  1  0
  6 24  1  0
  6 25  1  0
  8 26  1  0
  9 27  1  0
 10 28  1  0
 11 29  1  0
 12 30  1  0
M  END
>  <partial_charges>  (289) 
-0.0922999978065
-0.0798000022769
-0.077500000596
-0.0825000032783
-0.0719000026584
-0.0373999997973
-0.0766000002623
-0.128299996257
-0.128499999642
-0.133799999952
-0.128499999642
-0.128299996257
0.0326000005007
0.0326000005007
0.0326000005007
0.0384000018239
0.0384000018239
0.0381000004709
0.0381000004709
0.0428999997675
0.0428999997675
0.0412000007927
0.0412000007927
0.0472000017762
0.0472000017762
0.131099998951
0.129899993539
0.129899993539
0.129899993539
0.131099998951

>  <partial_bond_orders>  (289) 
1.0
1.0
1.0
1.0
1.0
1.0
2.0
1.0
2.0
1.0
2.0
1.0
1.0
1.0
1.0
1.0
1.0
1.0
1.0
1.0
1.0
1.0
1.0
1.0
1.0
1.0
1.0
1.0
1.0
1.0

>  <atom_types>  (289) 
c3
c3
c3
c3
c3
c3
ca
ca
ca
ca
ca
ca
hc
hc
hc
hc
hc
hc
hc
hc
hc
hc
hc
hc
hc
ha
ha
ha
ha
ha

>  <target>  (289) 
-0.04

>  <cal>  (289) 
-0.1

$$$$
mobley_9705941
     RDKit          3D

 12 12  0  0  0  0  0  0  0  0999 V2000
   -1.8290   -2.2090   -0.4540 C   0  0  0  0  0  0  0  0  0  0  0  0
   -1.3500   -1.0950   -1.2990 C   0  0  0  0  0  0  0  0  0  0  0  0
   -0.4680   -0.0880   -0.9720 C   0  0  0  0  0  0  0  0  0  0  0  0
   -0.2530    0.8090   -2.0580 C   0  0  0  0  0  0  0  0  0  0  0  0
   -0.9780    0.4540   -3.1740 C   0  0  0  0  0  0  0  0  0  0  0  0
   -1.9150   -0.9560   -2.9100 S   0  0  0  0  0  0  0  0  0  0  0  0
    0.0000    0.0000    0.0000 H   0  0  0  0  0  0  0  0  0  0  0  0
    0.0000    0.0000    0.0000 H   0  0  0  0  0  0  0  0  0  0  0  0
    0.0000    0.0000    0.0000 H   0  0  0  0  0  0  0  0  0  0  0  0
    0.0000    0.0000    0.0000 H   0  0  0  0  0  0  0  0  0  0  0  0
    0.0000    0.0000    0.0000 H   0  0  0  0  0  0  0  0  0  0  0  0
    0.0000    0.0000    0.0000 H   0  0  0  0  0  0  0  0  0  0  0  0
  1  2  1  0
  2  6  1  0
  2  3  2  0
  3  4  1  0
  4  5  2  0
  5  6  1  0
  1  7  1  0
  1  8  1  0
  1  9  1  0
  3 10  1  0
  4 11  1  0
  5 12  1  0
M  END
>  <partial_charges>  (290) 
-0.0243999995291
-0.0947000011802
-0.158299997449
-0.154200002551
-0.166099995375
-0.0155999995768
0.0469000004232
0.0469000004232
0.0469000004232
0.151999995112
0.151399999857
0.169200003147

>  <partial_bond_orders>  (290) 
1.0
1.0
2.0
1.0
2.0
1.0
1.0
1.0
1.0
1.0
1.0
1.0

>  <atom_types>  (290) 
c3
cc
cd
cd
cc
ss
hc
hc
hc
ha
ha
h4

>  <target>  (290) 
-1.38

>  <cal>  (290) 
-0.3

$$$$
mobley_3083321
     RDKit          3D

 13 12  0  0  0  0  0  0  0  0999 V2000
    1.1080    0.1080    0.0300 C   0  0  0  0  0  0  0  0  0  0  0  0
    1.3910    1.5000    0.0860 O   0  0  0  0  0  0  0  0  0  0  0  0
    2.7630    1.7600    0.3810 C   0  0  0  0  0  0  0  0  0  0  0  0
    3.6770    1.2210   -0.5730 O   0  0  0  0  0  0  0  0  0  0  0  0
    3.7840    2.0340   -1.7340 C   0  0  0  0  0  0  0  0  0  0  0  0
    0.0000    0.0000    0.0000 H   0  0  0  0  0  0  0  0  0  0  0  0
    0.0000    0.0000    0.0000 H   0  0  0  0  0  0  0  0  0  0  0  0
    0.0000    0.0000    0.0000 H   0  0  0  0  0  0  0  0  0  0  0  0
    0.0000    0.0000    0.0000 H   0  0  0  0  0  0  0  0  0  0  0  0
    0.0000    0.0000    0.0000 H   0  0  0  0  0  0  0  0  0  0  0  0
    0.0000    0.0000    0.0000 H   0  0  0  0  0  0  0  0  0  0  0  0
    0.0000    0.0000    0.0000 H   0  0  0  0  0  0  0  0  0  0  0  0
    0.0000    0.0000    0.0000 H   0  0  0  0  0  0  0  0  0  0  0  0
  1  2  1  0
  2  3  1  0
  3  4  1  0
  4  5  1  0
  1  6  1  0
  1  7  1  0
  1  8  1  0
  3  9  1  0
  3 10  1  0
  5 11  1  0
  5 12  1  0
  5 13  1  0
M  END
>  <partial_charges>  (291) 
0.119099996984
-0.445899993181
0.313199996948
-0.445899993181
0.119099996984
0.0364999994636
0.0364999994636
0.0364999994636
0.0608000010252
0.0608000010252
0.0364999994636
0.0364999994636
0.0364999994636

>  <partial_bond_orders>  (291) 
1.0
1.0
1.0
1.0
1.0
1.0
1.0
1.0
1.0
1.0
1.0
1.0

>  <atom_types>  (291) 
c3
os
c3
os
c3
h1
h1
h1
h2
h2
h1
h1
h1

>  <target>  (291) 
-2.93

>  <cal>  (291) 
-3.221

$$$$
mobley_2178600
     RDKit          3D

 17 16  0  0  0  0  0  0  0  0999 V2000
   -0.2350   -0.7100   -0.9420 C   0  0  0  0  0  0  0  0  0  0  0  0
    0.9420   -0.5150   -1.8850 C   0  0  0  0  0  0  0  0  0  0  0  0
    0.9810    0.9090   -2.4410 C   0  0  0  0  0  0  0  0  0  0  0  0
    2.1520    1.1570   -3.4000 C   0  0  0  0  0  0  0  0  0  0  0  0
    2.2430    2.5630   -3.9860 C   0  0  0  0  0  0  0  0  0  0  0  0
    0.7950    2.9940   -4.9230 Cl  0  0  0  0  0  0  0  0  0  0  0  0
    0.0000    0.0000    0.0000 H   0  0  0  0  0  0  0  0  0  0  0  0
    0.0000    0.0000    0.0000 H   0  0  0  0  0  0  0  0  0  0  0  0
    0.0000    0.0000    0.0000 H   0  0  0  0  0  0  0  0  0  0  0  0
    0.0000    0.0000    0.0000 H   0  0  0  0  0  0  0  0  0  0  0  0
    0.0000    0.0000    0.0000 H   0  0  0  0  0  0  0  0  0  0  0  0
    0.0000    0.0000    0.0000 H   0  0  0  0  0  0  0  0  0  0  0  0
    0.0000    0.0000    0.0000 H   0  0  0  0  0  0  0  0  0  0  0  0
    0.0000    0.0000    0.0000 H   0  0  0  0  0  0  0  0  0  0  0  0
    0.0000    0.0000    0.0000 H   0  0  0  0  0  0  0  0  0  0  0  0
    0.0000    0.0000    0.0000 H   0  0  0  0  0  0  0  0  0  0  0  0
    0.0000    0.0000    0.0000 H   0  0  0  0  0  0  0  0  0  0  0  0
  1  2  1  0
  2  3  1  0
  3  4  1  0
  4  5  1  0
  5  6  1  0
  1  7  1  0
  1  8  1  0
  1  9  1  0
  2 10  1  0
  2 11  1  0
  3 12  1  0
  3 13  1  0
  4 14  1  0
  4 15  1  0
  5 16  1  0
  5 17  1  0
M  END
>  <partial_charges>  (292) 
-0.0927999988198
-0.0786999985576
-0.083599999547
-0.0882000029087
0.0395999997854
-0.201399996877
0.0340000018477
0.0340000018477
0.0340000018477
0.0386000014842
0.0386000014842
0.0478999987245
0.0478999987245
0.0520000010729
0.0520000010729
0.0630000010133
0.0630000010133

>  <partial_bond_orders>  (292) 
1.0
1.0
1.0
1.0
1.0
1.0
1.0
1.0
1.0
1.0
1.0
1.0
1.0
1.0
1.0
1.0

>  <atom_types>  (292) 
c3
c3
c3
c3
c3
cl
hc
hc
hc
hc
hc
hc
hc
hc
hc
h1
h1

>  <target>  (292) 
-0.1

>  <cal>  (292) 
1.084

$$$$
mobley_7869158
     RDKit          3D

 17 16  0  0  1  0  0  0  0  0999 V2000
    0.9780   -0.0330   -0.2360 C   0  0  0  0  0  0  0  0  0  0  0  0
    1.4100    0.6790   -1.5110 C   0  0  0  0  0  0  0  0  0  0  0  0
    0.6390    0.1880   -2.7390 C   0  0  0  0  0  0  0  0  0  0  0  0
    1.0610    0.9420   -3.9930 C   0  0  0  0  0  0  0  0  0  0  0  0
   -0.7550    0.3900   -2.5270 O   0  0  0  0  0  0  0  0  0  0  0  0
   -1.5760   -0.4130   -3.3640 N   0  0  0  0  0  0  0  0  0  0  0  0
   -1.0160   -1.1730   -4.1580 O   0  0  0  0  0  0  0  0  0  0  0  0
   -2.7780   -0.2290   -3.1700 O   0  0  0  0  0  0  0  0  0  0  0  0
    0.0000    0.0000    0.0000 H   0  0  0  0  0  0  0  0  0  0  0  0
    0.0000    0.0000    0.0000 H   0  0  0  0  0  0  0  0  0  0  0  0
    0.0000    0.0000    0.0000 H   0  0  0  0  0  0  0  0  0  0  0  0
    0.0000    0.0000    0.0000 H   0  0  0  0  0  0  0  0  0  0  0  0
    0.0000    0.0000    0.0000 H   0  0  0  0  0  0  0  0  0  0  0  0
    0.0000    0.0000    0.0000 H   0  0  0  0  0  0  0  0  0  0  0  0
    0.0000    0.0000    0.0000 H   0  0  0  0  0  0  0  0  0  0  0  0
    0.0000    0.0000    0.0000 H   0  0  0  0  0  0  0  0  0  0  0  0
    0.0000    0.0000    0.0000 H   0  0  0  0  0  0  0  0  0  0  0  0
  1  2  1  0
  2  3  1  0
  3  4  1  0
  3  5  1  0
  5  6  1  0
  6  7  1  0
  6  8  1  0
  1  9  1  0
  1 10  1  0
  1 11  1  0
  2 12  1  0
  2 13  1  0
  3 14  1  0
  4 15  1  0
  4 16  1  0
  4 17  1  0
M  CHG  2   7  -1   8  -1
M  END
>  <partial_charges>  (293) 
-0.0888999998569
-0.119800001383
0.161400005221
0.0980999991298
-0.127499997616
-0.358799993992
0.373600006104
-0.184200003743
-0.184200003743
0.0419000014663
0.0419000014663
0.0419000014663
0.0601999983191
0.0601999983191
0.061400000006
0.061400000006
0.061400000006

>  <partial_bond_orders>  (293) 
1.0
1.0
1.0
1.0
1.0
1.0
1.0
1.0
1.0
1.0
1.0
1.0
1.0
1.0
1.0
1.0

>  <atom_types>  (293) 
c3
c3
c3
h1
c3
os
no
o
o
hc
hc
hc
hc
hc
hc
hc
hc

>  <target>  (293) 
-1.82

>  <cal>  (293) 
-1.864

$$$$
mobley_7360181
     RDKit          3D

 20 19  0  0  0  0  0  0  0  0999 V2000
    1.9750   -1.3850   -0.1410 C   0  0  0  0  0  0  0  0  0  0  0  0
    1.2850   -0.4980    0.7280 O   0  0  0  0  0  0  0  0  0  0  0  0
    0.1590    0.1980    0.1480 C   0  0  0  0  0  0  0  0  0  0  0  0
    0.6770    1.3860   -0.6710 C   0  0  0  0  0  0  0  0  0  0  0  0
    1.4960    0.9690   -1.6640 F   0  0  0  0  0  0  0  0  0  0  0  0
   -0.3300    2.0870   -1.2360 F   0  0  0  0  0  0  0  0  0  0  0  0
    1.3890    2.2470    0.0920 F   0  0  0  0  0  0  0  0  0  0  0  0
   -0.6180    0.7870    1.2160 O   0  0  0  0  0  0  0  0  0  0  0  0
   -1.1260   -0.1600    2.1470 C   0  0  0  0  0  0  0  0  0  0  0  0
   -0.6270   -0.7010   -0.6540 O   0  0  0  0  0  0  0  0  0  0  0  0
   -1.7690   -0.1370   -1.2820 C   0  0  0  0  0  0  0  0  0  0  0  0
    0.0000    0.0000    0.0000 H   0  0  0  0  0  0  0  0  0  0  0  0
    0.0000    0.0000    0.0000 H   0  0  0  0  0  0  0  0  0  0  0  0
    0.0000    0.0000    0.0000 H   0  0  0  0  0  0  0  0  0  0  0  0
    0.0000    0.0000    0.0000 H   0  0  0  0  0  0  0  0  0  0  0  0
    0.0000    0.0000    0.0000 H   0  0  0  0  0  0  0  0  0  0  0  0
    0.0000    0.0000    0.0000 H   0  0  0  0  0  0  0  0  0  0  0  0
    0.0000    0.0000    0.0000 H   0  0  0  0  0  0  0  0  0  0  0  0
    0.0000    0.0000    0.0000 H   0  0  0  0  0  0  0  0  0  0  0  0
    0.0000    0.0000    0.0000 H   0  0  0  0  0  0  0  0  0  0  0  0
  1  2  1  0
  2  3  1  0
  3  4  1  0
  4  5  1  0
  4  6  1  0
  4  7  1  0
  3  8  1  0
  8  9  1  0
  3 10  1  0
 10 11  1  0
  1 12  1  0
  1 13  1  0
  1 14  1  0
  9 15  1  0
  9 16  1  0
  9 17  1  0
 11 18  1  0
 11 19  1  0
 11 20  1  0
M  END
>  <partial_charges>  (294) 
0.124700002372
-0.429399996996
0.507499992847
0.611599981785
-0.226999998093
-0.226999998093
-0.226999998093
-0.429399996996
0.124700002372
-0.429399996996
0.124700002372
0.0529000014067
0.0529000014067
0.0529000014067
0.0529000014067
0.0529000014067
0.0529000014067
0.0529000014067
0.0529000014067
0.0529000014067

>  <partial_bond_orders>  (294) 
1.0
1.0
1.0
1.0
1.0
1.0
1.0
1.0
1.0
1.0
1.0
1.0
1.0
1.0
1.0
1.0
1.0
1.0
1.0

>  <atom_types>  (294) 
c3
os
c3
c3
f
f
f
os
c3
os
c3
h1
h1
h1
h1
h1
h1
h1
h1
h1

>  <target>  (294) 
-0.8

>  <cal>  (294) 
-2.319

$$$$
mobley_9007496
     RDKit          3D

 26 27  0  0  0  0  0  0  0  0999 V2000
   -3.4590   -6.6150   -0.2280 C   0  0  0  0  0  0  0  0  0  0  0  0
   -2.5250   -5.8300    0.5440 N   0  0  0  0  0  0  0  0  0  0  0  0
   -1.6850   -4.8840   -0.0080 C   0  0  0  0  0  0  0  0  0  0  0  0
   -1.6240   -4.5900   -1.1980 O   0  0  0  0  0  0  0  0  0  0  0  0
   -0.9140   -4.3080    0.9990 O   0  0  0  0  0  0  0  0  0  0  0  0
   -0.0480   -3.3540    0.5450 C   0  0  0  0  0  0  0  0  0  0  0  0
   -0.4970   -2.0340    0.4940 C   0  0  0  0  0  0  0  0  0  0  0  0
    0.3500   -1.0280    0.0390 C   0  0  0  0  0  0  0  0  0  0  0  0
    1.6480   -1.3370   -0.3660 C   0  0  0  0  0  0  0  0  0  0  0  0
    2.1170   -2.6600   -0.3220 C   0  0  0  0  0  0  0  0  0  0  0  0
    1.2560   -3.6840    0.1400 C   0  0  0  0  0  0  0  0  0  0  0  0
    1.7240   -5.0070    0.1850 C   0  0  0  0  0  0  0  0  0  0  0  0
    3.0230   -5.3170   -0.2210 C   0  0  0  0  0  0  0  0  0  0  0  0
    3.8690   -4.3100   -0.6760 C   0  0  0  0  0  0  0  0  0  0  0  0
    3.4210   -2.9900   -0.7270 C   0  0  0  0  0  0  0  0  0  0  0  0
    0.0000    0.0000    0.0000 H   0  0  0  0  0  0  0  0  0  0  0  0
    0.0000    0.0000    0.0000 H   0  0  0  0  0  0  0  0  0  0  0  0
    0.0000    0.0000    0.0000 H   0  0  0  0  0  0  0  0  0  0  0  0
    0.0000    0.0000    0.0000 H   0  0  0  0  0  0  0  0  0  0  0  0
    0.0000    0.0000    0.0000 H   0  0  0  0  0  0  0  0  0  0  0  0
    0.0000    0.0000    0.0000 H   0  0  0  0  0  0  0  0  0  0  0  0
    0.0000    0.0000    0.0000 H   0  0  0  0  0  0  0  0  0  0  0  0
    0.0000    0.0000    0.0000 H   0  0  0  0  0  0  0  0  0  0  0  0
    0.0000    0.0000    0.0000 H   0  0  0  0  0  0  0  0  0  0  0  0
    0.0000    0.0000    0.0000 H   0  0  0  0  0  0  0  0  0  0  0  0
    0.0000    0.0000    0.0000 H   0  0  0  0  0  0  0  0  0  0  0  0
  1  2  1  0
  2  3  1  0
  3  4  2  0
  3  5  1  0
  5  6  1  0
  6 11  2  0
  6  7  1  0
  7  8  2  0
  8  9  1  0
  9 10  2  0
 10 15  1  0
 10 11  1  0
 11 12  1  0
 12 13  2  0
 13 14  1  0
 14 15  2  0
  1 16  1  0
  1 17  1  0
  1 18  1  0
  2 19  1  0
  7 20  1  0
  8 21  1  0
  9 22  1  0
 12 23  1  0
 13 24  1  0
 14 25  1  0
 15 26  1  0
M  END
>  <partial_charges>  (295) 
0.0948000028729
-0.558899998665
0.741500020027
-0.557500004768
-0.380100011826
0.123899996281
-0.120600000024
-0.11969999969
-0.114699997008
-0.0294000003487
-0.0320000015199
-0.104999996722
-0.125799998641
-0.124200001359
-0.118000000715
0.0463999994099
0.0463999994099
0.0463999994099
0.33030000329
0.147100001574
0.136700004339
0.134700000286
0.1386000067
0.133399993181
0.13220000267
0.13330000639

>  <partial_bond_orders>  (295) 
1.0
1.0
2.0
1.0
1.0
2.0
1.0
2.0
1.0
2.0
1.0
1.0
1.0
2.0
1.0
2.0
1.0
1.0
1.0
1.0
1.0
1.0
1.0
1.0
1.0
1.0
1.0

>  <atom_types>  (295) 
c3
n
c
o
os
ca
ca
ca
ca
ca
ca
ca
ca
ca
ca
h1
h1
h1
hn
ha
ha
ha
ha
ha
ha
ha

>  <target>  (295) 
-9.45

>  <cal>  (295) 
-10.436

$$$$
mobley_2609604
     RDKit          3D

 23 22  0  0  0  0  0  0  0  0999 V2000
   -0.5080   -0.4810    0.8470 C   0  0  0  0  0  0  0  0  0  0  0  0
   -1.9970   -0.5980    0.5480 C   0  0  0  0  0  0  0  0  0  0  0  0
   -2.8410   -1.3570    1.6080 C   0  0  0  0  0  0  0  0  0  0  0  0
   -2.7380   -0.6450    2.9740 C   0  0  0  0  0  0  0  0  0  0  0  0
   -4.3190   -1.3070    1.1670 C   0  0  0  0  0  0  0  0  0  0  0  0
   -2.3930   -2.8310    1.8010 C   0  0  0  0  0  0  0  0  0  0  0  0
   -2.4710   -3.7150    0.5620 C   0  0  0  0  0  0  0  0  0  0  0  0
    0.0000    0.0000    0.0000 H   0  0  0  0  0  0  0  0  0  0  0  0
    0.0000    0.0000    0.0000 H   0  0  0  0  0  0  0  0  0  0  0  0
    0.0000    0.0000    0.0000 H   0  0  0  0  0  0  0  0  0  0  0  0
    0.0000    0.0000    0.0000 H   0  0  0  0  0  0  0  0  0  0  0  0
    0.0000    0.0000    0.0000 H   0  0  0  0  0  0  0  0  0  0  0  0
    0.0000    0.0000    0.0000 H   0  0  0  0  0  0  0  0  0  0  0  0
    0.0000    0.0000    0.0000 H   0  0  0  0  0  0  0  0  0  0  0  0
    0.0000    0.0000    0.0000 H   0  0  0  0  0  0  0  0  0  0  0  0
    0.0000    0.0000    0.0000 H   0  0  0  0  0  0  0  0  0  0  0  0
    0.0000    0.0000    0.0000 H   0  0  0  0  0  0  0  0  0  0  0  0
    0.0000    0.0000    0.0000 H   0  0  0  0  0  0  0  0  0  0  0  0
    0.0000    0.0000    0.0000 H   0  0  0  0  0  0  0  0  0  0  0  0
    0.0000    0.0000    0.0000 H   0  0  0  0  0  0  0  0  0  0  0  0
    0.0000    0.0000    0.0000 H   0  0  0  0  0  0  0  0  0  0  0  0
    0.0000    0.0000    0.0000 H   0  0  0  0  0  0  0  0  0  0  0  0
    0.0000    0.0000    0.0000 H   0  0  0  0  0  0  0  0  0  0  0  0
  1  2  1  0
  2  3  1  0
  3  4  1  0
  3  5  1  0
  3  6  1  0
  6  7  1  0
  1  8  1  0
  1  9  1  0
  1 10  1  0
  2 11  1  0
  2 12  1  0
  4 13  1  0
  4 14  1  0
  4 15  1  0
  5 16  1  0
  5 17  1  0
  5 18  1  0
  6 19  1  0
  6 20  1  0
  7 21  1  0
  7 22  1  0
  7 23  1  0
M  END
>  <partial_charges>  (296) 
-0.0914999991655
-0.0701000019908
-0.0507000014186
-0.0877000018954
-0.0877000018954
-0.0701000019908
-0.0914999991655
0.0329999998212
0.0329999998212
0.0329999998212
0.0377999991179
0.0377999991179
0.0333999991417
0.0333999991417
0.0333999991417
0.0333999991417
0.0333999991417
0.0333999991417
0.0377999991179
0.0377999991179
0.0329999998212
0.0329999998212
0.0329999998212

>  <partial_bond_orders>  (296) 
1.0
1.0
1.0
1.0
1.0
1.0
1.0
1.0
1.0
1.0
1.0
1.0
1.0
1.0
1.0
1.0
1.0
1.0
1.0
1.0
1.0
1.0

>  <atom_types>  (296) 
c3
c3
c3
c3
c3
c3
c3
hc
hc
hc
hc
hc
hc
hc
hc
hc
hc
hc
hc
hc
hc
hc
hc

>  <target>  (296) 
2.56

>  <cal>  (296) 
2.593

$$$$
mobley_5747981
     RDKit          3D

 24 23  0  0  0  0  0  0  0  0999 V2000
   -3.2190    1.1950   -1.5780 C   0  0  0  0  0  0  0  0  0  0  0  0
   -1.8580    0.7890   -1.5280 O   0  0  0  0  0  0  0  0  0  0  0  0
   -1.4630    0.4480   -0.2030 C   0  0  0  0  0  0  0  0  0  0  0  0
    0.0170    0.0130   -0.1910 C   0  0  0  0  0  0  0  0  0  0  0  0
    0.4450   -0.3380    1.1390 O   0  0  0  0  0  0  0  0  0  0  0  0
   -0.2610   -1.4050    1.7570 C   0  0  0  0  0  0  0  0  0  0  0  0
    0.8320    1.0860   -0.7140 O   0  0  0  0  0  0  0  0  0  0  0  0
    1.1240    2.1350    0.1990 C   0  0  0  0  0  0  0  0  0  0  0  0
    0.0910   -1.1180   -1.0900 O   0  0  0  0  0  0  0  0  0  0  0  0
    1.3980   -1.6670   -1.2130 C   0  0  0  0  0  0  0  0  0  0  0  0
    0.0000    0.0000    0.0000 H   0  0  0  0  0  0  0  0  0  0  0  0
    0.0000    0.0000    0.0000 H   0  0  0  0  0  0  0  0  0  0  0  0
    0.0000    0.0000    0.0000 H   0  0  0  0  0  0  0  0  0  0  0  0
    0.0000    0.0000    0.0000 H   0  0  0  0  0  0  0  0  0  0  0  0
    0.0000    0.0000    0.0000 H   0  0  0  0  0  0  0  0  0  0  0  0
    0.0000    0.0000    0.0000 H   0  0  0  0  0  0  0  0  0  0  0  0
    0.0000    0.0000    0.0000 H   0  0  0  0  0  0  0  0  0  0  0  0
    0.0000    0.0000    0.0000 H   0  0  0  0  0  0  0  0  0  0  0  0
    0.0000    0.0000    0.0000 H   0  0  0  0  0  0  0  0  0  0  0  0
    0.0000    0.0000    0.0000 H   0  0  0  0  0  0  0  0  0  0  0  0
    0.0000    0.0000    0.0000 H   0  0  0  0  0  0  0  0  0  0  0  0
    0.0000    0.0000    0.0000 H   0  0  0  0  0  0  0  0  0  0  0  0
    0.0000    0.0000    0.0000 H   0  0  0  0  0  0  0  0  0  0  0  0
    0.0000    0.0000    0.0000 H   0  0  0  0  0  0  0  0  0  0  0  0
  1  2  1  0
  2  3  1  0
  3  4  1  0
  4  5  1  0
  5  6  1  0
  4  7  1  0
  7  8  1  0
  4  9  1  0
  9 10  1  0
  1 11  1  0
  1 12  1  0
  1 13  1  0
  3 14  1  0
  3 15  1  0
  6 16  1  0
  6 17  1  0
  6 18  1  0
  8 19  1  0
  8 20  1  0
  8 21  1  0
 10 22  1  0
 10 23  1  0
 10 24  1  0
M  END
>  <partial_charges>  (297) 
0.109600000083
-0.383799999952
0.11249999702
0.530200004578
-0.441000014544
0.132100000978
-0.441000014544
0.132100000978
-0.441000014544
0.132100000978
0.035000000149
0.035000000149
0.035000000149
0.0443999990821
0.0443999990821
0.0405000001192
0.0405000001192
0.0405000001192
0.0405000001192
0.0405000001192
0.0405000001192
0.0405000001192
0.0405000001192
0.0405000001192

>  <partial_bond_orders>  (297) 
1.0
1.0
1.0
1.0
1.0
1.0
1.0
1.0
1.0
1.0
1.0
1.0
1.0
1.0
1.0
1.0
1.0
1.0
1.0
1.0
1.0
1.0
1.0

>  <atom_types>  (297) 
c3
os
c3
c3
os
c3
os
c3
os
c3
h1
h1
h1
h1
h1
h1
h1
h1
h1
h1
h1
h1
h1
h1

>  <target>  (297) 
-5.73

>  <cal>  (297) 
-5.436

$$$$
mobley_210639
     RDKit          3D

 11 10  0  0  0  0  0  0  0  0999 V2000
    0.9210   -0.8870   -0.1920 C   0  0  0  0  0  0  0  0  0  0  0  0
    0.3040    0.4550    0.1910 C   0  0  0  0  0  0  0  0  0  0  0  0
   -1.2190    0.3750    0.2120 C   0  0  0  0  0  0  0  0  0  0  0  0
    0.9330    1.9700   -1.2110 I   0  0  0  0  0  0  0  0  0  0  0  0
    0.0000    0.0000    0.0000 H   0  0  0  0  0  0  0  0  0  0  0  0
    0.0000    0.0000    0.0000 H   0  0  0  0  0  0  0  0  0  0  0  0
    0.0000    0.0000    0.0000 H   0  0  0  0  0  0  0  0  0  0  0  0
    0.0000    0.0000    0.0000 H   0  0  0  0  0  0  0  0  0  0  0  0
    0.0000    0.0000    0.0000 H   0  0  0  0  0  0  0  0  0  0  0  0
    0.0000    0.0000    0.0000 H   0  0  0  0  0  0  0  0  0  0  0  0
    0.0000    0.0000    0.0000 H   0  0  0  0  0  0  0  0  0  0  0  0
  1  2  1  0
  2  3  1  0
  2  4  1  0
  1  5  1  0
  1  6  1  0
  1  7  1  0
  2  8  1  0
  3  9  1  0
  3 10  1  0
  3 11  1  0
M  END
>  <partial_charges>  (298) 
-0.0926000028849
0.100599996746
-0.0926000028849
-0.267599999905
0.0463000014424
0.0463000014424
0.0463000014424
0.074500001967
0.0463000014424
0.0463000014424
0.0463000014424

>  <partial_bond_orders>  (298) 
1.0
1.0
1.0
1.0
1.0
1.0
1.0
1.0
1.0
1.0

>  <atom_types>  (298) 
c3
c3
c3
i
hc
hc
hc
h1
hc
hc
hc

>  <target>  (298) 
-0.46

>  <cal>  (298) 
-0.492

$$$$
mobley_8320545
     RDKit          3D

 10  9  0  0  0  0  0  0  0  0999 V2000
    0.2390    0.2400    1.0420 C   0  0  0  0  0  0  0  0  0  0  0  0
    1.1260   -0.8170    1.6640 C   0  0  0  0  0  0  0  0  0  0  0  0
    2.3770   -0.9040    0.9080 N   0  0  0  0  0  0  0  0  0  0  0  0
    3.3280   -0.1770    1.2590 O   0  0  0  0  0  0  0  0  0  0  0  0
    2.4190   -1.6910   -0.0590 O   0  0  0  0  0  0  0  0  0  0  0  0
    0.0000    0.0000    0.0000 H   0  0  0  0  0  0  0  0  0  0  0  0
    0.0000    0.0000    0.0000 H   0  0  0  0  0  0  0  0  0  0  0  0
    0.0000    0.0000    0.0000 H   0  0  0  0  0  0  0  0  0  0  0  0
    0.0000    0.0000    0.0000 H   0  0  0  0  0  0  0  0  0  0  0  0
    0.0000    0.0000    0.0000 H   0  0  0  0  0  0  0  0  0  0  0  0
  1  2  1  0
  2  3  1  0
  3  4  1  0
  3  5  1  0
  1  6  1  0
  1  7  1  0
  1  8  1  0
  2  9  1  0
  2 10  1  0
M  CHG  2   4  -1   5  -1
M  END
>  <partial_charges>  (299) 
-0.112300001085
-0.0736000016332
0.226099997759
-0.210299998522
-0.210299998522
0.064099997282
0.064099997282
0.064099997282
0.0940999984741
0.0940999984741

>  <partial_bond_orders>  (299) 
1.0
1.0
1.0
1.0
1.0
1.0
1.0
1.0
1.0

>  <atom_types>  (299) 
c3
c3
no
o
o
hc
hc
hc
h1
h1

>  <target>  (299) 
-3.71

>  <cal>  (299) 
-1.839

$$$$
mobley_7157427
     RDKit          3D

 23 22  0  0  0  0  0  0  0  0999 V2000
    0.4060   -1.8820    3.5580 C   0  0  0  0  0  0  0  0  0  0  0  0
    0.3080   -0.6730    2.6410 C   0  0  0  0  0  0  0  0  0  0  0  0
   -0.0090   -1.0320    1.1880 C   0  0  0  0  0  0  0  0  0  0  0  0
   -0.1060    0.1880    0.2690 C   0  0  0  0  0  0  0  0  0  0  0  0
   -0.4240   -0.2270   -1.1710 C   0  0  0  0  0  0  0  0  0  0  0  0
   -0.5220    0.9940   -2.0900 C   0  0  0  0  0  0  0  0  0  0  0  0
   -0.8380    0.6350   -3.5390 C   0  0  0  0  0  0  0  0  0  0  0  0
   -0.9430    2.0760   -4.5770 Cl  0  0  0  0  0  0  0  0  0  0  0  0
    0.0000    0.0000    0.0000 H   0  0  0  0  0  0  0  0  0  0  0  0
    0.0000    0.0000    0.0000 H   0  0  0  0  0  0  0  0  0  0  0  0
    0.0000    0.0000    0.0000 H   0  0  0  0  0  0  0  0  0  0  0  0
    0.0000    0.0000    0.0000 H   0  0  0  0  0  0  0  0  0  0  0  0
    0.0000    0.0000    0.0000 H   0  0  0  0  0  0  0  0  0  0  0  0
    0.0000    0.0000    0.0000 H   0  0  0  0  0  0  0  0  0  0  0  0
    0.0000    0.0000    0.0000 H   0  0  0  0  0  0  0  0  0  0  0  0
    0.0000    0.0000    0.0000 H   0  0  0  0  0  0  0  0  0  0  0  0
    0.0000    0.0000    0.0000 H   0  0  0  0  0  0  0  0  0  0  0  0
    0.0000    0.0000    0.0000 H   0  0  0  0  0  0  0  0  0  0  0  0
    0.0000    0.0000    0.0000 H   0  0  0  0  0  0  0  0  0  0  0  0
    0.0000    0.0000    0.0000 H   0  0  0  0  0  0  0  0  0  0  0  0
    0.0000    0.0000    0.0000 H   0  0  0  0  0  0  0  0  0  0  0  0
    0.0000    0.0000    0.0000 H   0  0  0  0  0  0  0  0  0  0  0  0
    0.0000    0.0000    0.0000 H   0  0  0  0  0  0  0  0  0  0  0  0
  1  2  1  0
  2  3  1  0
  3  4  1  0
  4  5  1  0
  5  6  1  0
  6  7  1  0
  7  8  1  0
  1  9  1  0
  1 10  1  0
  1 11  1  0
  2 12  1  0
  2 13  1  0
  3 14  1  0
  3 15  1  0
  4 16  1  0
  4 17  1  0
  5 18  1  0
  5 19  1  0
  6 20  1  0
  6 21  1  0
  7 22  1  0
  7 23  1  0
M  END
>  <partial_charges>  (300) 
-0.0922000035644
-0.0799999982119
-0.0781999975443
-0.0773999989033
-0.0797000005841
-0.0913999974728
0.0379999987781
-0.199200004339
0.0333999991417
0.0333999991417
0.0333999991417
0.0384999997914
0.0384999997914
0.0392000004649
0.0392000004649
0.0414999984205
0.0414999984205
0.0412999987602
0.0412999987602
0.0562999993563
0.0562999993563
0.0631999969482
0.0631999969482

>  <partial_bond_orders>  (300) 
1.0
1.0
1.0
1.0
1.0
1.0
1.0
1.0
1.0
1.0
1.0
1.0
1.0
1.0
1.0
1.0
1.0
1.0
1.0
1.0
1.0
1.0

>  <atom_types>  (300) 
c3
c3
c3
c3
c3
c3
c3
cl
hc
hc
hc
hc
hc
hc
hc
hc
hc
hc
hc
hc
hc
h1
h1

>  <target>  (300) 
0.29

>  <cal>  (300) 
1.467

$$$$
mobley_4479135
     RDKit          3D

 26 27  0  0  0  0  0  0  0  0999 V2000
    2.0250   -2.1890   -2.2170 C   0  0  0  0  0  0  0  0  0  0  0  0
    1.9300   -1.0140   -1.5660 C   0  0  0  0  0  0  0  0  0  0  0  0
    1.8950    0.2080   -2.3540 C   0  0  0  0  0  0  0  0  0  0  0  0
    0.7940    1.0600   -2.2720 C   0  0  0  0  0  0  0  0  0  0  0  0
    0.7610    2.2320   -3.0270 C   0  0  0  0  0  0  0  0  0  0  0  0
    1.8290    2.5510   -3.8660 C   0  0  0  0  0  0  0  0  0  0  0  0
    2.9300    1.6980   -3.9490 C   0  0  0  0  0  0  0  0  0  0  0  0
    2.9630    0.5270   -3.1930 C   0  0  0  0  0  0  0  0  0  0  0  0
    1.8650   -1.0390   -0.0830 C   0  0  0  0  0  0  0  0  0  0  0  0
    2.8440   -0.3890    0.6690 C   0  0  0  0  0  0  0  0  0  0  0  0
    2.7830   -0.4130    2.0630 C   0  0  0  0  0  0  0  0  0  0  0  0
    1.7430   -1.0870    2.7040 C   0  0  0  0  0  0  0  0  0  0  0  0
    0.7650   -1.7370    1.9520 C   0  0  0  0  0  0  0  0  0  0  0  0
    0.8250   -1.7130    0.5590 C   0  0  0  0  0  0  0  0  0  0  0  0
    0.0000    0.0000    0.0000 H   0  0  0  0  0  0  0  0  0  0  0  0
    0.0000    0.0000    0.0000 H   0  0  0  0  0  0  0  0  0  0  0  0
    0.0000    0.0000    0.0000 H   0  0  0  0  0  0  0  0  0  0  0  0
    0.0000    0.0000    0.0000 H   0  0  0  0  0  0  0  0  0  0  0  0
    0.0000    0.0000    0.0000 H   0  0  0  0  0  0  0  0  0  0  0  0
    0.0000    0.0000    0.0000 H   0  0  0  0  0  0  0  0  0  0  0  0
    0.0000    0.0000    0.0000 H   0  0  0  0  0  0  0  0  0  0  0  0
    0.0000    0.0000    0.0000 H   0  0  0  0  0  0  0  0  0  0  0  0
    0.0000    0.0000    0.0000 H   0  0  0  0  0  0  0  0  0  0  0  0
    0.0000    0.0000    0.0000 H   0  0  0  0  0  0  0  0  0  0  0  0
    0.0000    0.0000    0.0000 H   0  0  0  0  0  0  0  0  0  0  0  0
    0.0000    0.0000    0.0000 H   0  0  0  0  0  0  0  0  0  0  0  0
  1  2  2  3
  2  3  1  0
  3  8  1  0
  3  4  2  0
  4  5  1  0
  5  6  2  0
  6  7  1  0
  7  8  2  0
  2  9  1  0
  9 14  1  0
  9 10  2  0
 10 11  1  0
 11 12  2  0
 12 13  1  0
 13 14  2  0
  1 15  1  0
  1 16  1  0
  4 17  1  0
  5 18  1  0
  6 19  1  0
  7 20  1  0
  8 21  1  0
 10 22  1  0
 11 23  1  0
 12 24  1  0
 13 25  1  0
 14 26  1  0
M  END
>  <partial_charges>  (301) 
-0.199100002646
-0.0164000000805
-0.0527000017464
-0.116200000048
-0.132100000978
-0.127700001001
-0.132100000978
-0.116200000048
-0.0527000017464
-0.116200000048
-0.132100000978
-0.127700001001
-0.132100000978
-0.116200000048
0.11930000037
0.11930000037
0.135900005698
0.131400004029
0.130700007081
0.131400004029
0.135900005698
0.135900005698
0.131400004029
0.130700007081
0.131400004029
0.135900005698

>  <partial_bond_orders>  (301) 
2.0
1.0
2.0
1.0
2.0
1.0
2.0
1.0
1.0
2.0
1.0
2.0
1.0
2.0
1.0
1.0
1.0
1.0
1.0
1.0
1.0
1.0
1.0
1.0
1.0
1.0
1.0

>  <atom_types>  (301) 
c2
ce
ca
ca
ca
ca
ca
ca
ca
ca
ca
ca
ca
ca
ha
ha
ha
ha
ha
ha
ha
ha
ha
ha
ha
ha

>  <target>  (301) 
-2.78

>  <cal>  (301) 
-2.47

$$$$
mobley_3573480
     RDKit          3D

 22 21  0  0  0  0  0  0  0  0999 V2000
   -3.2940    0.4140    5.9540 C   0  0  0  0  0  0  0  0  0  0  0  0
   -2.7300    1.1730    4.7640 C   0  0  0  0  0  0  0  0  0  0  0  0
   -1.4000    0.5790    4.2990 C   0  0  0  0  0  0  0  0  0  0  0  0
   -0.8380    1.3480    3.1010 C   0  0  0  0  0  0  0  0  0  0  0  0
    0.4910    0.7790    2.6120 C   0  0  0  0  0  0  0  0  0  0  0  0
    1.0570    1.5330    1.4260 C   0  0  0  0  0  0  0  0  0  0  0  0
    0.4660    2.5000    0.9430 O   0  0  0  0  0  0  0  0  0  0  0  0
    2.3780    1.0690    0.8720 C   0  0  0  0  0  0  0  0  0  0  0  0
    0.0000    0.0000    0.0000 H   0  0  0  0  0  0  0  0  0  0  0  0
    0.0000    0.0000    0.0000 H   0  0  0  0  0  0  0  0  0  0  0  0
    0.0000    0.0000    0.0000 H   0  0  0  0  0  0  0  0  0  0  0  0
    0.0000    0.0000    0.0000 H   0  0  0  0  0  0  0  0  0  0  0  0
    0.0000    0.0000    0.0000 H   0  0  0  0  0  0  0  0  0  0  0  0
    0.0000    0.0000    0.0000 H   0  0  0  0  0  0  0  0  0  0  0  0
    0.0000    0.0000    0.0000 H   0  0  0  0  0  0  0  0  0  0  0  0
    0.0000    0.0000    0.0000 H   0  0  0  0  0  0  0  0  0  0  0  0
    0.0000    0.0000    0.0000 H   0  0  0  0  0  0  0  0  0  0  0  0
    0.0000    0.0000    0.0000 H   0  0  0  0  0  0  0  0  0  0  0  0
    0.0000    0.0000    0.0000 H   0  0  0  0  0  0  0  0  0  0  0  0
    0.0000    0.0000    0.0000 H   0  0  0  0  0  0  0  0  0  0  0  0
    0.0000    0.0000    0.0000 H   0  0  0  0  0  0  0  0  0  0  0  0
    0.0000    0.0000    0.0000 H   0  0  0  0  0  0  0  0  0  0  0  0
  1  2  1  0
  2  3  1  0
  3  4  1  0
  4  5  1  0
  5  6  1  0
  6  7  2  0
  6  8  1  0
  1  9  1  0
  1 10  1  0
  1 11  1  0
  2 12  1  0
  2 13  1  0
  3 14  1  0
  3 15  1  0
  4 16  1  0
  4 17  1  0
  5 18  1  0
  5 19  1  0
  8 20  1  0
  8 21  1  0
  8 22  1  0
M  END
>  <partial_charges>  (302) 
-0.0921000018716
-0.0798000022769
-0.0776000022888
-0.0755999982357
-0.180500000715
0.563300013542
-0.532700002193
-0.204099997878
0.0329999998212
0.0329999998212
0.0329999998212
0.0408000014722
0.0408000014722
0.0366999991238
0.0366999991238
0.0544999986887
0.0544999986887
0.0636000037193
0.0636000037193
0.0630000010133
0.0630000010133
0.0630000010133

>  <partial_bond_orders>  (302) 
1.0
1.0
1.0
1.0
1.0
2.0
1.0
1.0
1.0
1.0
1.0
1.0
1.0
1.0
1.0
1.0
1.0
1.0
1.0
1.0
1.0

>  <atom_types>  (302) 
c3
c3
c3
c3
c3
c
o
c3
hc
hc
hc
hc
hc
hc
hc
hc
hc
hc
hc
hc
hc
hc

>  <target>  (302) 
-3.04

>  <cal>  (302) 
-2.945

$$$$
mobley_2269032
     RDKit          3D

 31 32  0  0  1  0  0  0  0  0999 V2000
   -2.1510   -2.0710    2.3890 C   0  0  0  0  0  0  0  0  0  0  0  0
   -1.8840   -1.7020    0.9280 C   0  0  0  0  0  0  0  0  0  0  0  0
   -0.4970   -2.0340    0.4940 C   0  0  0  0  0  0  0  0  0  0  0  0
    0.3500   -1.0280    0.0390 C   0  0  0  0  0  0  0  0  0  0  0  0
    1.6480   -1.3370   -0.3660 C   0  0  0  0  0  0  0  0  0  0  0  0
    2.1170   -2.6600   -0.3220 C   0  0  0  0  0  0  0  0  0  0  0  0
    3.4210   -2.9900   -0.7270 C   0  0  0  0  0  0  0  0  0  0  0  0
    3.8690   -4.3100   -0.6760 C   0  0  0  0  0  0  0  0  0  0  0  0
    3.0230   -5.3170   -0.2210 C   0  0  0  0  0  0  0  0  0  0  0  0
    1.7240   -5.0070    0.1850 C   0  0  0  0  0  0  0  0  0  0  0  0
    1.2560   -3.6840    0.1400 C   0  0  0  0  0  0  0  0  0  0  0  0
   -0.0480   -3.3540    0.5450 C   0  0  0  0  0  0  0  0  0  0  0  0
    5.1360   -4.6130   -1.0720 O   0  0  0  0  0  0  0  0  0  0  0  0
    5.5300   -5.9820   -0.9940 C   0  0  0  0  0  0  0  0  0  0  0  0
   -2.9240   -2.3500    0.0250 C   0  0  0  0  0  0  0  0  0  0  0  0
   -3.4920   -3.4100    0.2470 O   0  0  0  0  0  0  0  0  0  0  0  0
   -3.1640   -1.6120   -1.0910 O   0  0  0  0  0  0  0  0  0  0  0  0
    0.0000    0.0000    0.0000 H   0  0  0  0  0  0  0  0  0  0  0  0
    0.0000    0.0000    0.0000 H   0  0  0  0  0  0  0  0  0  0  0  0
    0.0000    0.0000    0.0000 H   0  0  0  0  0  0  0  0  0  0  0  0
    0.0000    0.0000    0.0000 H   0  0  0  0  0  0  0  0  0  0  0  0
    0.0000    0.0000    0.0000 H   0  0  0  0  0  0  0  0  0  0  0  0
    0.0000    0.0000    0.0000 H   0  0  0  0  0  0  0  0  0  0  0  0
    0.0000    0.0000    0.0000 H   0  0  0  0  0  0  0  0  0  0  0  0
    0.0000    0.0000    0.0000 H   0  0  0  0  0  0  0  0  0  0  0  0
    0.0000    0.0000    0.0000 H   0  0  0  0  0  0  0  0  0  0  0  0
    0.0000    0.0000    0.0000 H   0  0  0  0  0  0  0  0  0  0  0  0
    0.0000    0.0000    0.0000 H   0  0  0  0  0  0  0  0  0  0  0  0
    0.0000    0.0000    0.0000 H   0  0  0  0  0  0  0  0  0  0  0  0
    0.0000    0.0000    0.0000 H   0  0  0  0  0  0  0  0  0  0  0  0
    0.0000    0.0000    0.0000 H   0  0  0  0  0  0  0  0  0  0  0  0
  1  2  1  0
  2  3  1  0
  3 12  2  0
  3  4  1  0
  4  5  2  0
  5  6  1  0
  6 11  2  0
  6  7  1  0
  7  8  2  0
  8  9  1  0
  9 10  2  0
 10 11  1  0
 11 12  1  0
  8 13  1  0
 13 14  1  0
  2 15  1  0
 15 16  2  0
 15 17  1  0
  1 18  1  0
  1 19  1  0
  1 20  1  0
  2 21  1  0
  4 22  1  0
  5 23  1  0
  7 24  1  0
  9 25  1  0
 10 26  1  0
 12 27  1  0
 14 28  1  0
 14 29  1  0
 14 30  1  0
 17 31  1  0
M  END
>  <partial_charges>  (303) 
-0.0876000002027
-0.0542999990284
0.0857999995351
-0.100599996746
-0.103500001132
-0.123899996281
0.00340000004508
-0.160300001502
0.127499997616
-0.186700001359
-0.0820999965072
-0.0709000006318
-0.0899000018835
-0.327100008726
0.113600000739
0.638499975204
-0.54540002346
-0.608500003815
0.0494000017643
0.0494000017643
0.0494000017643
0.135700002313
0.138300001621
0.152500003576
0.139899998903
0.136399999261
0.14280000329
0.0450000017881
0.0450000017881
0.0450000017881
0.443599998951

>  <partial_bond_orders>  (303) 
1.0
1.0
1.0
2.0
1.0
2.0
1.0
2.0
1.0
2.0
1.0
2.0
1.0
1.0
1.0
1.0
1.0
2.0
1.0
1.0
1.0
1.0
1.0
1.0
1.0
1.0
1.0
1.0
1.0
1.0
1.0
1.0

>  <atom_types>  (303) 
c3
c3
hc
ca
ca
ca
ca
ca
ca
ca
ca
ca
ca
os
c3
c
o
oh
hc
hc
hc
ha
ha
ha
ha
ha
ha
h1
h1
h1
ho

>  <target>  (303) 
-10.21

>  <cal>  (303) 
-12.199

$$$$
mobley_3682850
     RDKit          3D

 17 17  0  0  0  0  0  0  0  0999 V2000
   -1.1620    1.4190    0.1300 C   0  0  0  0  0  0  0  0  0  0  0  0
    0.2280    1.5840   -0.4820 C   0  0  0  0  0  0  0  0  0  0  0  0
    0.7150    0.2960   -1.1310 C   0  0  0  0  0  0  0  0  0  0  0  0
    0.6060   -0.8630   -0.1660 C   0  0  0  0  0  0  0  0  0  0  0  0
    1.5120   -1.6850   -0.0400 O   0  0  0  0  0  0  0  0  0  0  0  0
   -0.7220   -1.0340    0.5380 C   0  0  0  0  0  0  0  0  0  0  0  0
   -1.1770    0.2830    1.1510 C   0  0  0  0  0  0  0  0  0  0  0  0
    0.0000    0.0000    0.0000 H   0  0  0  0  0  0  0  0  0  0  0  0
    0.0000    0.0000    0.0000 H   0  0  0  0  0  0  0  0  0  0  0  0
    0.0000    0.0000    0.0000 H   0  0  0  0  0  0  0  0  0  0  0  0
    0.0000    0.0000    0.0000 H   0  0  0  0  0  0  0  0  0  0  0  0
    0.0000    0.0000    0.0000 H   0  0  0  0  0  0  0  0  0  0  0  0
    0.0000    0.0000    0.0000 H   0  0  0  0  0  0  0  0  0  0  0  0
    0.0000    0.0000    0.0000 H   0  0  0  0  0  0  0  0  0  0  0  0
    0.0000    0.0000    0.0000 H   0  0  0  0  0  0  0  0  0  0  0  0
    0.0000    0.0000    0.0000 H   0  0  0  0  0  0  0  0  0  0  0  0
    0.0000    0.0000    0.0000 H   0  0  0  0  0  0  0  0  0  0  0  0
  1  7  1  0
  1  2  1  0
  2  3  1  0
  3  4  1  0
  4  5  2  0
  4  6  1  0
  6  7  1  0
  1  8  1  0
  1  9  1  0
  2 10  1  0
  2 11  1  0
  3 12  1  0
  3 13  1  0
  6 14  1  0
  6 15  1  0
  7 16  1  0
  7 17  1  0
M  END
>  <partial_charges>  (304) 
-0.0826999992132
-0.0727000012994
-0.181099995971
0.569199979305
-0.532800018787
-0.181099995971
-0.0727000012994
0.0450000017881
0.0450000017881
0.0474000014365
0.0474000014365
0.068599998951
0.068599998951
0.068599998951
0.068599998951
0.0474000014365
0.0474000014365

>  <partial_bond_orders>  (304) 
1.0
1.0
1.0
1.0
2.0
1.0
1.0
1.0
1.0
1.0
1.0
1.0
1.0
1.0
1.0
1.0
1.0

>  <atom_types>  (304) 
c3
c3
c3
c
o
c3
c3
hc
hc
hc
hc
hc
hc
hc
hc
hc
hc

>  <target>  (304) 
-4.91

>  <cal>  (304) 
-4.18

$$$$
mobley_1424265
     RDKit          3D

 18 18  0  0  0  0  0  0  0  0999 V2000
    1.9310   -1.0130   -1.6030 C   0  0  0  0  0  0  0  0  0  0  0  0
    1.8850   -1.0360   -0.1120 C   0  0  0  0  0  0  0  0  0  0  0  0
    2.9210   -1.6310    0.6080 C   0  0  0  0  0  0  0  0  0  0  0  0
    2.8780   -1.6520    2.0020 C   0  0  0  0  0  0  0  0  0  0  0  0
    1.8000   -1.0790    2.6760 C   0  0  0  0  0  0  0  0  0  0  0  0
    0.7640   -0.4840    1.9550 C   0  0  0  0  0  0  0  0  0  0  0  0
    0.8070   -0.4630    0.5610 C   0  0  0  0  0  0  0  0  0  0  0  0
   -0.3890    0.1290    2.6760 C   0  0  0  0  0  0  0  0  0  0  0  0
    0.0000    0.0000    0.0000 H   0  0  0  0  0  0  0  0  0  0  0  0
    0.0000    0.0000    0.0000 H   0  0  0  0  0  0  0  0  0  0  0  0
    0.0000    0.0000    0.0000 H   0  0  0  0  0  0  0  0  0  0  0  0
    0.0000    0.0000    0.0000 H   0  0  0  0  0  0  0  0  0  0  0  0
    0.0000    0.0000    0.0000 H   0  0  0  0  0  0  0  0  0  0  0  0
    0.0000    0.0000    0.0000 H   0  0  0  0  0  0  0  0  0  0  0  0
    0.0000    0.0000    0.0000 H   0  0  0  0  0  0  0  0  0  0  0  0
    0.0000    0.0000    0.0000 H   0  0  0  0  0  0  0  0  0  0  0  0
    0.0000    0.0000    0.0000 H   0  0  0  0  0  0  0  0  0  0  0  0
    0.0000    0.0000    0.0000 H   0  0  0  0  0  0  0  0  0  0  0  0
  1  2  1  0
  2  7  2  0
  2  3  1  0
  3  4  2  0
  4  5  1  0
  5  6  2  0
  6  7  1  0
  6  8  1  0
  1  9  1  0
  1 10  1  0
  1 11  1  0
  3 12  1  0
  4 13  1  0
  5 14  1  0
  7 15  1  0
  8 16  1  0
  8 17  1  0
  8 18  1  0
M  END
>  <partial_charges>  (305) 
-0.0535999983549
-0.0738999992609
-0.135199993849
-0.123700000346
-0.135199993849
-0.0738999992609
-0.130899995565
-0.0535999983549
0.0434999987483
0.0434999987483
0.0434999987483
0.129700005054
0.129600003362
0.129700005054
0.129999995232
0.0434999987483
0.0434999987483
0.0434999987483

>  <partial_bond_orders>  (305) 
1.0
2.0
1.0
2.0
1.0
2.0
1.0
1.0
1.0
1.0
1.0
1.0
1.0
1.0
1.0
1.0
1.0
1.0

>  <atom_types>  (305) 
c3
ca
ca
ca
ca
ca
ca
c3
hc
hc
hc
ha
ha
ha
ha
hc
hc
hc

>  <target>  (305) 
-0.83

>  <cal>  (305) 
-0.697

$$$$
mobley_2523689
     RDKit          3D

 23 24  0  0  0  0  0  0  0  0999 V2000
    6.0300    0.7040   -6.7360 C   0  0  0  0  0  0  0  0  0  0  0  0
    6.3140   -0.1390   -5.6610 C   0  0  0  0  0  0  0  0  0  0  0  0
    5.3930   -0.2800   -4.6230 C   0  0  0  0  0  0  0  0  0  0  0  0
    4.1870    0.4210   -4.6600 C   0  0  0  0  0  0  0  0  0  0  0  0
    3.9030    1.2630   -5.7360 C   0  0  0  0  0  0  0  0  0  0  0  0
    4.8240    1.4040   -6.7730 C   0  0  0  0  0  0  0  0  0  0  0  0
    3.2340    0.2750   -3.5870 N   0  0  0  0  0  0  0  0  0  0  0  0
    1.8450    0.3730   -3.7330 C   0  0  0  0  0  0  0  0  0  0  0  0
    1.2400    0.5130   -4.7960 O   0  0  0  0  0  0  0  0  0  0  0  0
    1.0400    0.2700   -2.4780 C   0  0  0  0  0  0  0  0  0  0  0  0
    1.6030    0.0360   -1.2910 C   0  0  0  0  0  0  0  0  0  0  0  0
    3.0630   -0.1060   -1.3400 C   0  0  0  0  0  0  0  0  0  0  0  0
    3.8180    0.0040   -2.3780 N   0  0  0  0  0  0  0  0  0  0  0  0
    1.0060   -0.0890   -0.0750 N   0  0  0  0  0  0  0  0  0  0  0  0
   -0.6730    0.4610   -2.6330 Cl  0  0  0  0  0  0  0  0  0  0  0  0
    0.0000    0.0000    0.0000 H   0  0  0  0  0  0  0  0  0  0  0  0
    0.0000    0.0000    0.0000 H   0  0  0  0  0  0  0  0  0  0  0  0
    0.0000    0.0000    0.0000 H   0  0  0  0  0  0  0  0  0  0  0  0
    0.0000    0.0000    0.0000 H   0  0  0  0  0  0  0  0  0  0  0  0
    0.0000    0.0000    0.0000 H   0  0  0  0  0  0  0  0  0  0  0  0
    0.0000    0.0000    0.0000 H   0  0  0  0  0  0  0  0  0  0  0  0
    0.0000    0.0000    0.0000 H   0  0  0  0  0  0  0  0  0  0  0  0
    0.0000    0.0000    0.0000 H   0  0  0  0  0  0  0  0  0  0  0  0
  1  6  2  0
  1  2  1  0
  2  3  2  0
  3  4  1  0
  4  5  2  0
  5  6  1  0
  4  7  1  0
  7 13  1  0
  7  8  1  0
  8  9  2  0
  8 10  1  0
 10 11  2  0
 11 12  1  0
 12 13  2  0
 11 14  1  0
 10 15  1  0
  1 16  1  0
  2 17  1  0
  3 18  1  0
  5 19  1  0
  6 20  1  0
 12 21  1  0
 14 22  1  0
 14 23  1  0
M  END
>  <partial_charges>  (306) 
-0.129800006747
-0.126200005412
-0.116999998689
0.0564999990165
-0.116999998689
-0.126200005412
-0.118900001049
0.705999970436
-0.595899999142
-0.21819999814
0.1481000036
0.30039998889
-0.390700012445
-0.858900010586
-0.0636999979615
0.134900003672
0.135100007057
0.155100002885
0.155100002885
0.135100007057
0.0500000007451
0.443300008774
0.443300008774

>  <partial_bond_orders>  (306) 
2.0
1.0
2.0
1.0
2.0
1.0
1.0
1.0
1.0
2.0
1.0
2.0
1.0
2.0
1.0
1.0
1.0
1.0
1.0
1.0
1.0
1.0
1.0
1.0

>  <atom_types>  (306) 
ca
ca
ca
ca
ca
ca
n
c
o
cc
cd
cd
nc
nh
cl
ha
ha
ha
ha
ha
h4
hn
hn

>  <target>  (306) 
-16.43

>  <cal>  (306) 
-16.039

$$$$
mobley_6309289
     RDKit          3D

 17 17  0  0  0  0  0  0  0  0999 V2000
    1.2830    0.0610   -0.7440 C   0  0  0  0  0  0  0  0  0  0  0  0
   -0.0190    0.5940   -1.3340 C   0  0  0  0  0  0  0  0  0  0  0  0
   -1.2310   -0.1170   -0.7340 C   0  0  0  0  0  0  0  0  0  0  0  0
   -1.2380   -0.0250    0.7260 N   0  0  0  0  0  0  0  0  0  0  0  0
   -0.0250   -0.6040    1.3050 C   0  0  0  0  0  0  0  0  0  0  0  0
    1.2310    0.0900    0.7800 C   0  0  0  0  0  0  0  0  0  0  0  0
    0.0000    0.0000    0.0000 H   0  0  0  0  0  0  0  0  0  0  0  0
    0.0000    0.0000    0.0000 H   0  0  0  0  0  0  0  0  0  0  0  0
    0.0000    0.0000    0.0000 H   0  0  0  0  0  0  0  0  0  0  0  0
    0.0000    0.0000    0.0000 H   0  0  0  0  0  0  0  0  0  0  0  0
    0.0000    0.0000    0.0000 H   0  0  0  0  0  0  0  0  0  0  0  0
    0.0000    0.0000    0.0000 H   0  0  0  0  0  0  0  0  0  0  0  0
    0.0000    0.0000    0.0000 H   0  0  0  0  0  0  0  0  0  0  0  0
    0.0000    0.0000    0.0000 H   0  0  0  0  0  0  0  0  0  0  0  0
    0.0000    0.0000    0.0000 H   0  0  0  0  0  0  0  0  0  0  0  0
    0.0000    0.0000    0.0000 H   0  0  0  0  0  0  0  0  0  0  0  0
    0.0000    0.0000    0.0000 H   0  0  0  0  0  0  0  0  0  0  0  0
  1  6  1  0
  1  2  1  0
  2  3  1  0
  3  4  1  0
  4  5  1  0
  5  6  1  0
  1  7  1  0
  1  8  1  0
  2  9  1  0
  2 10  1  0
  3 11  1  0
  3 12  1  0
  4 13  1  0
  5 14  1  0
  5 15  1  0
  6 16  1  0
  6 17  1  0
M  END
>  <partial_charges>  (307) 
-0.0769999995828
-0.0764999985695
0.158999994397
-0.81099998951
0.158999994397
-0.0764999985695
0.0386999994516
0.0386999994516
0.0460000000894
0.0460000000894
0.0261000003666
0.0261000003666
0.35719999671
0.0261000003666
0.0261000003666
0.0460000000894
0.0460000000894

>  <partial_bond_orders>  (307) 
1.0
1.0
1.0
1.0
1.0
1.0
1.0
1.0
1.0
1.0
1.0
1.0
1.0
1.0
1.0
1.0
1.0

>  <atom_types>  (307) 
c3
c3
c3
n3
c3
c3
hc
hc
hc
hc
h1
h1
hn
h1
h1
hc
hc

>  <target>  (307) 
-5.11

>  <cal>  (307) 
-3.873

$$$$
mobley_6861308
     RDKit          3D

 24 24  0  0  0  0  0  0  0  0999 V2000
    0.6780   -0.7210   -0.2300 C   0  0  0  0  0  0  0  0  0  0  0  0
    1.8320    0.0810   -0.6180 N   0  0  0  0  0  0  0  0  0  0  0  0
    1.5870    1.4500   -1.0680 C   0  0  0  0  0  0  0  0  0  0  0  0
    3.1090   -0.5200   -0.5330 C   0  0  0  0  0  0  0  0  0  0  0  0
    3.2570   -1.6810   -0.1460 O   0  0  0  0  0  0  0  0  0  0  0  0
    4.1540    0.3100   -0.9470 N   0  0  0  0  0  0  0  0  0  0  0  0
    5.3830   -0.0750   -1.5360 C   0  0  0  0  0  0  0  0  0  0  0  0
    6.3210    0.8950   -1.8900 C   0  0  0  0  0  0  0  0  0  0  0  0
    7.5330    0.5160   -2.4690 C   0  0  0  0  0  0  0  0  0  0  0  0
    7.8060   -0.8330   -2.6940 C   0  0  0  0  0  0  0  0  0  0  0  0
    6.8680   -1.8030   -2.3410 C   0  0  0  0  0  0  0  0  0  0  0  0
    5.6570   -1.4240   -1.7620 C   0  0  0  0  0  0  0  0  0  0  0  0
    0.0000    0.0000    0.0000 H   0  0  0  0  0  0  0  0  0  0  0  0
    0.0000    0.0000    0.0000 H   0  0  0  0  0  0  0  0  0  0  0  0
    0.0000    0.0000    0.0000 H   0  0  0  0  0  0  0  0  0  0  0  0
    0.0000    0.0000    0.0000 H   0  0  0  0  0  0  0  0  0  0  0  0
    0.0000    0.0000    0.0000 H   0  0  0  0  0  0  0  0  0  0  0  0
    0.0000    0.0000    0.0000 H   0  0  0  0  0  0  0  0  0  0  0  0
    0.0000    0.0000    0.0000 H   0  0  0  0  0  0  0  0  0  0  0  0
    0.0000    0.0000    0.0000 H   0  0  0  0  0  0  0  0  0  0  0  0
    0.0000    0.0000    0.0000 H   0  0  0  0  0  0  0  0  0  0  0  0
    0.0000    0.0000    0.0000 H   0  0  0  0  0  0  0  0  0  0  0  0
    0.0000    0.0000    0.0000 H   0  0  0  0  0  0  0  0  0  0  0  0
    0.0000    0.0000    0.0000 H   0  0  0  0  0  0  0  0  0  0  0  0
  1  2  1  0
  2  3  1  0
  2  4  1  0
  4  5  2  0
  4  6  1  0
  6  7  1  0
  7 12  2  0
  7  8  1  0
  8  9  2  0
  9 10  1  0
 10 11  2  0
 11 12  1  0
  1 13  1  0
  1 14  1  0
  1 15  1  0
  3 16  1  0
  3 17  1  0
  3 18  1  0
  6 19  1  0
  8 20  1  0
  9 21  1  0
 10 22  1  0
 11 23  1  0
 12 24  1  0
M  END
>  <partial_charges>  (308) 
0.0866999998689
-0.463499993086
0.0866999998689
0.757099986076
-0.618700027466
-0.463400006294
0.0597999989986
-0.174099996686
-0.0997999981046
-0.160500004888
-0.0997999981046
-0.174099996686
0.0467999987304
0.0467999987304
0.0467999987304
0.0467999987304
0.0467999987304
0.0467999987304
0.30989998579
0.13750000298
0.132499992847
0.133100003004
0.132499992847
0.13750000298

>  <partial_bond_orders>  (308) 
1.0
1.0
1.0
2.0
1.0
1.0
2.0
1.0
2.0
1.0
2.0
1.0
1.0
1.0
1.0
1.0
1.0
1.0
1.0
1.0
1.0
1.0
1.0
1.0

>  <atom_types>  (308) 
c3
n
c3
c
o
n
ca
ca
ca
ca
ca
ca
h1
h1
h1
h1
h1
h1
hn
ha
ha
ha
ha
ha

>  <target>  (308) 
-9.13

>  <cal>  (308) 
-11.81

$$$$
mobley_6060301
     RDKit          3D

 22 21  0  0  0  0  0  0  0  0999 V2000
   -2.3100   -1.4080    1.8830 C   0  0  0  0  0  0  0  0  0  0  0  0
   -1.1040   -0.4940    1.7310 C   0  0  0  0  0  0  0  0  0  0  0  0
   -1.2660    0.8540    2.4370 C   0  0  0  0  0  0  0  0  0  0  0  0
   -0.0500    1.7700    2.2800 C   0  0  0  0  0  0  0  0  0  0  0  0
   -0.2650    3.1030    3.0050 C   0  0  0  0  0  0  0  0  0  0  0  0
    0.9300    4.0420    2.8690 C   0  0  0  0  0  0  0  0  0  0  0  0
    0.7290    5.2930    3.5480 N   0  0  0  0  0  0  0  0  0  0  0  0
    0.0000    0.0000    0.0000 H   0  0  0  0  0  0  0  0  0  0  0  0
    0.0000    0.0000    0.0000 H   0  0  0  0  0  0  0  0  0  0  0  0
    0.0000    0.0000    0.0000 H   0  0  0  0  0  0  0  0  0  0  0  0
    0.0000    0.0000    0.0000 H   0  0  0  0  0  0  0  0  0  0  0  0
    0.0000    0.0000    0.0000 H   0  0  0  0  0  0  0  0  0  0  0  0
    0.0000    0.0000    0.0000 H   0  0  0  0  0  0  0  0  0  0  0  0
    0.0000    0.0000    0.0000 H   0  0  0  0  0  0  0  0  0  0  0  0
    0.0000    0.0000    0.0000 H   0  0  0  0  0  0  0  0  0  0  0  0
    0.0000    0.0000    0.0000 H   0  0  0  0  0  0  0  0  0  0  0  0
    0.0000    0.0000    0.0000 H   0  0  0  0  0  0  0  0  0  0  0  0
    0.0000    0.0000    0.0000 H   0  0  0  0  0  0  0  0  0  0  0  0
    0.0000    0.0000    0.0000 H   0  0  0  0  0  0  0  0  0  0  0  0
    0.0000    0.0000    0.0000 H   0  0  0  0  0  0  0  0  0  0  0  0
    0.0000    0.0000    0.0000 H   0  0  0  0  0  0  0  0  0  0  0  0
    0.0000    0.0000    0.0000 H   0  0  0  0  0  0  0  0  0  0  0  0
  1  2  1  0
  2  3  1  0
  3  4  1  0
  4  5  1  0
  5  6  1  0
  6  7  1  0
  1  8  1  0
  1  9  1  0
  1 10  1  0
  2 11  1  0
  2 12  1  0
  3 13  1  0
  3 14  1  0
  4 15  1  0
  4 16  1  0
  5 17  1  0
  5 18  1  0
  6 19  1  0
  6 20  1  0
  7 21  1  0
  7 22  1  0
M  END
>  <partial_charges>  (309) 
-0.0921000018716
-0.0799999982119
-0.0789000019431
-0.0737000033259
-0.122500002384
0.15189999342
-0.908699989319
0.0329999998212
0.0329999998212
0.0329999998212
0.0381999984384
0.0381999984384
0.0388000011444
0.0388000011444
0.041400000453
0.041400000453
0.0375000014901
0.0375000014901
0.0511999987066
0.0511999987066
0.345299988985
0.345299988985

>  <partial_bond_orders>  (309) 
1.0
1.0
1.0
1.0
1.0
1.0
1.0
1.0
1.0
1.0
1.0
1.0
1.0
1.0
1.0
1.0
1.0
1.0
1.0
1.0
1.0

>  <atom_types>  (309) 
c3
c3
c3
c3
c3
c3
n3
hc
hc
hc
hc
hc
hc
hc
hc
hc
hc
hc
h1
h1
hn
hn

>  <target>  (309) 
-3.95

>  <cal>  (309) 
-2.772

$$$$
mobley_8221999
     RDKit          3D

 12 11  0  0  0  0  0  0  0  0999 V2000
   -0.0180    0.2010   -1.0760 C   0  0  0  0  0  0  0  0  0  0  0  0
   -1.1840    1.1050   -1.4420 C   0  0  0  0  0  0  0  0  0  0  0  0
   -1.0970    2.4510   -0.7270 C   0  0  0  0  0  0  0  0  0  0  0  0
   -2.2280    3.3160   -1.0880 C   0  0  0  0  0  0  0  0  0  0  0  0
   -3.1210    4.0000   -1.3720 N   0  0  0  0  0  0  0  0  0  0  0  0
    0.0000    0.0000    0.0000 H   0  0  0  0  0  0  0  0  0  0  0  0
    0.0000    0.0000    0.0000 H   0  0  0  0  0  0  0  0  0  0  0  0
    0.0000    0.0000    0.0000 H   0  0  0  0  0  0  0  0  0  0  0  0
    0.0000    0.0000    0.0000 H   0  0  0  0  0  0  0  0  0  0  0  0
    0.0000    0.0000    0.0000 H   0  0  0  0  0  0  0  0  0  0  0  0
    0.0000    0.0000    0.0000 H   0  0  0  0  0  0  0  0  0  0  0  0
    0.0000    0.0000    0.0000 H   0  0  0  0  0  0  0  0  0  0  0  0
  1  2  1  0
  2  3  1  0
  3  4  1  0
  4  5  3  0
  1  6  1  0
  1  7  1  0
  1  8  1  0
  2  9  1  0
  2 10  1  0
  3 11  1  0
  3 12  1  0
M  END
>  <partial_charges>  (310) 
-0.0948000028729
-0.0797000005841
-0.0226000007242
0.210099995136
-0.376800000668
0.0384000018239
0.0384000018239
0.0384000018239
0.0513000003994
0.0513000003994
0.0728999972343
0.0728999972343

>  <partial_bond_orders>  (310) 
1.0
1.0
1.0
3.0
1.0
1.0
1.0
1.0
1.0
1.0
1.0

>  <atom_types>  (310) 
c3
c3
c3
c1
n1
hc
hc
hc
hc
hc
hc
hc

>  <target>  (310) 
-3.64

>  <cal>  (310) 
-2.287

$$$$
mobley_5123639
     RDKit          3D

 21 20  0  0  1  0  0  0  0  0999 V2000
    1.5230   -0.0310   -2.8940 C   0  0  0  0  0  0  0  0  0  0  0  0
    1.1130    1.2950   -2.2680 C   0  0  0  0  0  0  0  0  0  0  0  0
   -0.3930    1.5690   -2.3520 C   0  0  0  0  0  0  0  0  0  0  0  0
   -1.3050    0.5380   -1.6610 C   0  0  0  0  0  0  0  0  0  0  0  0
   -1.0220    0.4220   -0.1630 C   0  0  0  0  0  0  0  0  0  0  0  0
   -2.7720    0.9160   -1.8830 C   0  0  0  0  0  0  0  0  0  0  0  0
    1.7780    2.3500   -2.9650 O   0  0  0  0  0  0  0  0  0  0  0  0
    0.0000    0.0000    0.0000 H   0  0  0  0  0  0  0  0  0  0  0  0
    0.0000    0.0000    0.0000 H   0  0  0  0  0  0  0  0  0  0  0  0
    0.0000    0.0000    0.0000 H   0  0  0  0  0  0  0  0  0  0  0  0
    0.0000    0.0000    0.0000 H   0  0  0  0  0  0  0  0  0  0  0  0
    0.0000    0.0000    0.0000 H   0  0  0  0  0  0  0  0  0  0  0  0
    0.0000    0.0000    0.0000 H   0  0  0  0  0  0  0  0  0  0  0  0
    0.0000    0.0000    0.0000 H   0  0  0  0  0  0  0  0  0  0  0  0
    0.0000    0.0000    0.0000 H   0  0  0  0  0  0  0  0  0  0  0  0
    0.0000    0.0000    0.0000 H   0  0  0  0  0  0  0  0  0  0  0  0
    0.0000    0.0000    0.0000 H   0  0  0  0  0  0  0  0  0  0  0  0
    0.0000    0.0000    0.0000 H   0  0  0  0  0  0  0  0  0  0  0  0
    0.0000    0.0000    0.0000 H   0  0  0  0  0  0  0  0  0  0  0  0
    0.0000    0.0000    0.0000 H   0  0  0  0  0  0  0  0  0  0  0  0
    0.0000    0.0000    0.0000 H   0  0  0  0  0  0  0  0  0  0  0  0
  1  2  1  0
  2  3  1  0
  3  4  1  0
  4  5  1  0
  4  6  1  0
  2  7  1  0
  1  8  1  0
  1  9  1  0
  1 10  1  0
  2 11  1  0
  3 12  1  0
  3 13  1  0
  4 14  1  0
  5 15  1  0
  5 16  1  0
  5 17  1  0
  6 18  1  0
  6 19  1  0
  6 20  1  0
  7 21  1  0
M  END
>  <partial_charges>  (311) 
-0.128700003028
0.142199993134
0.0309999994934
-0.0750000029802
-0.0641999989748
-0.091099999845
-0.091099999845
-0.605400025845
0.0423000007868
0.0423000007868
0.0423000007868
0.054200001061
0.054200001061
0.0449000000954
0.034200001508
0.034200001508
0.034200001508
0.034200001508
0.034200001508
0.034200001508
0.397000014782

>  <partial_bond_orders>  (311) 
1.0
1.0
1.0
1.0
1.0
1.0
1.0
1.0
1.0
1.0
1.0
1.0
1.0
1.0
1.0
1.0
1.0
1.0
1.0
1.0

>  <atom_types>  (311) 
c3
c3
h1
c3
c3
c3
c3
oh
hc
hc
hc
hc
hc
hc
hc
hc
hc
hc
hc
hc
ho

>  <target>  (311) 
-3.73

>  <cal>  (311) 
-2.907

$$$$
mobley_6456034
     RDKit          3D

 26 25  0  0  0  0  0  0  0  0999 V2000
    1.9650   -1.5720   -5.6310 C   0  0  0  0  0  0  0  0  0  0  0  0
    3.1730   -1.1110   -4.8140 C   0  0  0  0  0  0  0  0  0  0  0  0
    4.1590   -0.3560   -5.7030 C   0  0  0  0  0  0  0  0  0  0  0  0
    2.7460   -0.2390   -3.6300 C   0  0  0  0  0  0  0  0  0  0  0  0
    1.8770   -0.9790   -2.7680 O   0  0  0  0  0  0  0  0  0  0  0  0
    1.4250   -0.3060   -1.6680 C   0  0  0  0  0  0  0  0  0  0  0  0
    1.7000    0.8500   -1.3740 O   0  0  0  0  0  0  0  0  0  0  0  0
    0.5290   -1.2190   -0.8490 C   0  0  0  0  0  0  0  0  0  0  0  0
    1.3670   -1.9780    0.1740 C   0  0  0  0  0  0  0  0  0  0  0  0
   -0.5770   -0.4200   -0.1640 C   0  0  0  0  0  0  0  0  0  0  0  0
    0.0000    0.0000    0.0000 H   0  0  0  0  0  0  0  0  0  0  0  0
    0.0000    0.0000    0.0000 H   0  0  0  0  0  0  0  0  0  0  0  0
    0.0000    0.0000    0.0000 H   0  0  0  0  0  0  0  0  0  0  0  0
    0.0000    0.0000    0.0000 H   0  0  0  0  0  0  0  0  0  0  0  0
    0.0000    0.0000    0.0000 H   0  0  0  0  0  0  0  0  0  0  0  0
    0.0000    0.0000    0.0000 H   0  0  0  0  0  0  0  0  0  0  0  0
    0.0000    0.0000    0.0000 H   0  0  0  0  0  0  0  0  0  0  0  0
    0.0000    0.0000    0.0000 H   0  0  0  0  0  0  0  0  0  0  0  0
    0.0000    0.0000    0.0000 H   0  0  0  0  0  0  0  0  0  0  0  0
    0.0000    0.0000    0.0000 H   0  0  0  0  0  0  0  0  0  0  0  0
    0.0000    0.0000    0.0000 H   0  0  0  0  0  0  0  0  0  0  0  0
    0.0000    0.0000    0.0000 H   0  0  0  0  0  0  0  0  0  0  0  0
    0.0000    0.0000    0.0000 H   0  0  0  0  0  0  0  0  0  0  0  0
    0.0000    0.0000    0.0000 H   0  0  0  0  0  0  0  0  0  0  0  0
    0.0000    0.0000    0.0000 H   0  0  0  0  0  0  0  0  0  0  0  0
    0.0000    0.0000    0.0000 H   0  0  0  0  0  0  0  0  0  0  0  0
  1  2  1  0
  2  3  1  0
  2  4  1  0
  4  5  1  0
  5  6  1  0
  6  7  2  0
  6  8  1  0
  8  9  1  0
  8 10  1  0
  1 11  1  0
  1 12  1  0
  1 13  1  0
  2 14  1  0
  3 15  1  0
  3 16  1  0
  3 17  1  0
  4 18  1  0
  4 19  1  0
  8 20  1  0
  9 21  1  0
  9 22  1  0
  9 23  1  0
 10 24  1  0
 10 25  1  0
 10 26  1  0
M  END
>  <partial_charges>  (312) 
-0.0852999985218
-0.113600000739
-0.0852999985218
0.156100004911
-0.447899997234
0.637099981308
-0.536899983883
-0.11060000211
-0.091899998486
-0.091899998486
0.035300001502
0.035300001502
0.035300001502
0.0837000012398
0.035300001502
0.035300001502
0.035300001502
0.0555000007153
0.0555000007153
0.0795999988914
0.0472999997437
0.0472999997437
0.0472999997437
0.0472999997437
0.0472999997437
0.0472999997437

>  <partial_bond_orders>  (312) 
1.0
1.0
1.0
1.0
1.0
2.0
1.0
1.0
1.0
1.0
1.0
1.0
1.0
1.0
1.0
1.0
1.0
1.0
1.0
1.0
1.0
1.0
1.0
1.0
1.0

>  <atom_types>  (312) 
c3
c3
c3
c3
os
c
o
c3
c3
c3
hc
hc
hc
hc
hc
hc
hc
h1
h1
hc
hc
hc
hc
hc
hc
hc

>  <target>  (312) 
-1.69

>  <cal>  (312) 
-2.58

$$$$
mobley_6338073
     RDKit          3D

 35 35  0  0  0  0  0  0  0  0999 V2000
    5.1450   -5.1550    2.0500 C   0  0  0  0  0  0  0  0  0  0  0  0
    4.0580   -4.1760    2.3340 C   0  0  0  0  0  0  0  0  0  0  0  0
    3.4770   -4.4050    3.6360 N   0  0  0  0  0  0  0  0  0  0  0  0
    2.4260   -3.6300    4.1730 C   0  0  0  0  0  0  0  0  0  0  0  0
    1.9610   -2.6310    3.4060 N   0  0  0  0  0  0  0  0  0  0  0  0
    0.9640   -1.9390    3.9810 C   0  0  0  0  0  0  0  0  0  0  0  0
    0.4290   -2.1600    5.1930 N   0  0  0  0  0  0  0  0  0  0  0  0
    0.9940   -3.1900    5.8440 C   0  0  0  0  0  0  0  0  0  0  0  0
    1.9930   -3.9680    5.3980 N   0  0  0  0  0  0  0  0  0  0  0  0
    0.3520   -3.5620    7.4630 S   0  0  0  0  0  0  0  0  0  0  0  0
    0.6910   -1.9920    8.2910 C   0  0  0  0  0  0  0  0  0  0  0  0
    0.4310   -0.8890    3.2490 N   0  0  0  0  0  0  0  0  0  0  0  0
    0.8920   -0.5160    1.9240 C   0  0  0  0  0  0  0  0  0  0  0  0
    0.7040   -1.7000    0.9690 C   0  0  0  0  0  0  0  0  0  0  0  0
    0.0760    0.6830    1.4290 C   0  0  0  0  0  0  0  0  0  0  0  0
    2.3770   -0.1410    1.9910 C   0  0  0  0  0  0  0  0  0  0  0  0
    0.0000    0.0000    0.0000 H   0  0  0  0  0  0  0  0  0  0  0  0
    0.0000    0.0000    0.0000 H   0  0  0  0  0  0  0  0  0  0  0  0
    0.0000    0.0000    0.0000 H   0  0  0  0  0  0  0  0  0  0  0  0
    0.0000    0.0000    0.0000 H   0  0  0  0  0  0  0  0  0  0  0  0
    0.0000    0.0000    0.0000 H   0  0  0  0  0  0  0  0  0  0  0  0
    0.0000    0.0000    0.0000 H   0  0  0  0  0  0  0  0  0  0  0  0
    0.0000    0.0000    0.0000 H   0  0  0  0  0  0  0  0  0  0  0  0
    0.0000    0.0000    0.0000 H   0  0  0  0  0  0  0  0  0  0  0  0
    0.0000    0.0000    0.0000 H   0  0  0  0  0  0  0  0  0  0  0  0
    0.0000    0.0000    0.0000 H   0  0  0  0  0  0  0  0  0  0  0  0
    0.0000    0.0000    0.0000 H   0  0  0  0  0  0  0  0  0  0  0  0
    0.0000    0.0000    0.0000 H   0  0  0  0  0  0  0  0  0  0  0  0
    0.0000    0.0000    0.0000 H   0  0  0  0  0  0  0  0  0  0  0  0
    0.0000    0.0000    0.0000 H   0  0  0  0  0  0  0  0  0  0  0  0
    0.0000    0.0000    0.0000 H   0  0  0  0  0  0  0  0  0  0  0  0
    0.0000    0.0000    0.0000 H   0  0  0  0  0  0  0  0  0  0  0  0
    0.0000    0.0000    0.0000 H   0  0  0  0  0  0  0  0  0  0  0  0
    0.0000    0.0000    0.0000 H   0  0  0  0  0  0  0  0  0  0  0  0
    0.0000    0.0000    0.0000 H   0  0  0  0  0  0  0  0  0  0  0  0
  1  2  1  0
  2  3  1  0
  3  4  1  0
  4  9  2  0
  4  5  1  0
  5  6  2  0
  6  7  1  0
  7  8  2  0
  8  9  1  0
  8 10  1  0
 10 11  1  0
  6 12  1  0
 12 13  1  0
 13 14  1  0
 13 15  1  0
 13 16  1  0
  1 17  1  0
  1 18  1  0
  1 19  1  0
  2 20  1  0
  2 21  1  0
  3 22  1  0
 11 23  1  0
 11 24  1  0
 11 25  1  0
 12 26  1  0
 14 27  1  0
 14 28  1  0
 14 29  1  0
 15 30  1  0
 15 31  1  0
 15 32  1  0
 16 33  1  0
 16 34  1  0
 16 35  1  0
M  END
>  <partial_charges>  (313) 
-0.127800002694
0.205200001597
-0.830900013447
0.906199991703
-0.830699980259
0.890900015831
-0.761099994183
0.781899988651
-0.76700001955
-0.234300002456
-0.0653000026941
-0.791100025177
0.207499995828
-0.1053000018
-0.1053000018
-0.1053000018
0.0445999987423
0.0445999987423
0.0445999987423
0.062199998647
0.062199998647
0.440299987793
0.0750999972224
0.0750999972224
0.0750999972224
0.398200005293
0.0456000007689
0.0456000007689
0.0456000007689
0.0456000007689
0.0456000007689
0.0456000007689
0.0456000007689
0.0456000007689
0.0456000007689

>  <partial_bond_orders>  (313) 
1.0
1.0
1.0
2.0
1.0
2.0
1.0
2.0
1.0
1.0
1.0
1.0
1.0
1.0
1.0
1.0
1.0
1.0
1.0
1.0
1.0
1.0
1.0
1.0
1.0
1.0
1.0
1.0
1.0
1.0
1.0
1.0
1.0
1.0
1.0

>  <atom_types>  (313) 
c3
c3
nh
ca
nb
ca
nb
ca
nb
ss
c3
nh
c3
c3
c3
c3
hc
hc
hc
h1
h1
hn
h1
h1
h1
hn
hc
hc
hc
hc
hc
hc
hc
hc
hc

>  <target>  (313) 
-6.68

>  <cal>  (313) 
-9.271

$$$$
mobley_718988
     RDKit          3D

 25 24  0  0  0  0  0  0  0  0999 V2000
    0.6870   -0.7200    0.0950 C   0  0  0  0  0  0  0  0  0  0  0  0
    0.1580   -2.1000   -0.2610 C   0  0  0  0  0  0  0  0  0  0  0  0
   -0.2980   -2.1670   -1.7190 C   0  0  0  0  0  0  0  0  0  0  0  0
   -0.8290   -3.5590   -2.0700 C   0  0  0  0  0  0  0  0  0  0  0  0
   -1.3010   -3.6830   -3.5210 C   0  0  0  0  0  0  0  0  0  0  0  0
   -1.8320   -5.0750   -3.8720 C   0  0  0  0  0  0  0  0  0  0  0  0
   -2.2870   -5.1380   -5.3300 C   0  0  0  0  0  0  0  0  0  0  0  0
   -2.7890   -6.4700   -5.6470 N   0  0  0  0  0  0  0  0  0  0  0  0
    0.0000    0.0000    0.0000 H   0  0  0  0  0  0  0  0  0  0  0  0
    0.0000    0.0000    0.0000 H   0  0  0  0  0  0  0  0  0  0  0  0
    0.0000    0.0000    0.0000 H   0  0  0  0  0  0  0  0  0  0  0  0
    0.0000    0.0000    0.0000 H   0  0  0  0  0  0  0  0  0  0  0  0
    0.0000    0.0000    0.0000 H   0  0  0  0  0  0  0  0  0  0  0  0
    0.0000    0.0000    0.0000 H   0  0  0  0  0  0  0  0  0  0  0  0
    0.0000    0.0000    0.0000 H   0  0  0  0  0  0  0  0  0  0  0  0
    0.0000    0.0000    0.0000 H   0  0  0  0  0  0  0  0  0  0  0  0
    0.0000    0.0000    0.0000 H   0  0  0  0  0  0  0  0  0  0  0  0
    0.0000    0.0000    0.0000 H   0  0  0  0  0  0  0  0  0  0  0  0
    0.0000    0.0000    0.0000 H   0  0  0  0  0  0  0  0  0  0  0  0
    0.0000    0.0000    0.0000 H   0  0  0  0  0  0  0  0  0  0  0  0
    0.0000    0.0000    0.0000 H   0  0  0  0  0  0  0  0  0  0  0  0
    0.0000    0.0000    0.0000 H   0  0  0  0  0  0  0  0  0  0  0  0
    0.0000    0.0000    0.0000 H   0  0  0  0  0  0  0  0  0  0  0  0
    0.0000    0.0000    0.0000 H   0  0  0  0  0  0  0  0  0  0  0  0
    0.0000    0.0000    0.0000 H   0  0  0  0  0  0  0  0  0  0  0  0
  1  2  1  0
  2  3  1  0
  3  4  1  0
  4  5  1  0
  5  6  1  0
  6  7  1  0
  7  8  1  0
  1  9  1  0
  1 10  1  0
  1 11  1  0
  2 12  1  0
  2 13  1  0
  3 14  1  0
  3 15  1  0
  4 16  1  0
  4 17  1  0
  5 18  1  0
  5 19  1  0
  6 20  1  0
  6 21  1  0
  7 22  1  0
  7 23  1  0
  8 24  1  0
  8 25  1  0
M  END
>  <partial_charges>  (314) 
-0.0917999967933
-0.0798000022769
-0.0781999975443
-0.0781000033021
-0.0740000009537
-0.122100003064
0.149399995804
-0.902800023556
0.0333000011742
0.0333000011742
0.0333000011742
0.0377000011504
0.0377000011504
0.0390999987721
0.0390999987721
0.0384000018239
0.0384000018239
0.0410000011325
0.0410000011325
0.0375999994576
0.0375999994576
0.0522000007331
0.0522000007331
0.342799991369
0.342799991369

>  <partial_bond_orders>  (314) 
1.0
1.0
1.0
1.0
1.0
1.0
1.0
1.0
1.0
1.0
1.0
1.0
1.0
1.0
1.0
1.0
1.0
1.0
1.0
1.0
1.0
1.0
1.0
1.0

>  <atom_types>  (314) 
c3
c3
c3
c3
c3
c3
c3
n3
hc
hc
hc
hc
hc
hc
hc
hc
hc
hc
hc
hc
hc
h1
h1
hn
hn

>  <target>  (314) 
-3.79

>  <cal>  (314) 
-2.554

$$$$
mobley_9257453
     RDKit          3D

 13 13  0  0  0  0  0  0  0  0999 V2000
    1.8850   -1.0360   -0.1120 C   0  0  0  0  0  0  0  0  0  0  0  0
    2.9210   -1.6310    0.6080 C   0  0  0  0  0  0  0  0  0  0  0  0
    2.8780   -1.6520    2.0020 C   0  0  0  0  0  0  0  0  0  0  0  0
    1.8000   -1.0790    2.6760 C   0  0  0  0  0  0  0  0  0  0  0  0
    0.7640   -0.4840    1.9550 C   0  0  0  0  0  0  0  0  0  0  0  0
    0.8070   -0.4630    0.5610 C   0  0  0  0  0  0  0  0  0  0  0  0
   -0.2040    0.1170   -0.1420 O   0  0  0  0  0  0  0  0  0  0  0  0
    1.6890   -1.0730    4.4010 Cl  0  0  0  0  0  0  0  0  0  0  0  0
    4.1920   -2.4030    2.8380 Cl  0  0  0  0  0  0  0  0  0  0  0  0
    0.0000    0.0000    0.0000 H   0  0  0  0  0  0  0  0  0  0  0  0
    0.0000    0.0000    0.0000 H   0  0  0  0  0  0  0  0  0  0  0  0
    0.0000    0.0000    0.0000 H   0  0  0  0  0  0  0  0  0  0  0  0
    0.0000    0.0000    0.0000 H   0  0  0  0  0  0  0  0  0  0  0  0
  1  6  2  0
  1  2  1  0
  2  3  2  0
  3  4  1  0
  4  5  2  0
  5  6  1  0
  6  7  1  0
  4  8  1  0
  3  9  1  0
  1 10  1  0
  2 11  1  0
  5 12  1  0
  7 13  1  0
M  END
>  <partial_charges>  (315) 
-0.208399996161
-0.0764999985695
-0.0198999997228
0.0520000010729
-0.1481000036
0.13560000062
-0.489699989557
-0.0641999989748
-0.0694999992847
0.140699997544
0.154100000858
0.169900000095
0.424100011587

>  <partial_bond_orders>  (315) 
2.0
1.0
2.0
1.0
2.0
1.0
1.0
1.0
1.0
1.0
1.0
1.0
1.0

>  <atom_types>  (315) 
ca
ca
ca
ca
ca
ca
oh
cl
cl
ha
ha
ha
ho

>  <target>  (315) 
-7.29

>  <cal>  (315) 
-5.139

$$$$
mobley_2390199
     RDKit          3D

 22 21  0  0  0  0  0  0  0  0999 V2000
    1.0140    0.3940    0.1160 C   0  0  0  0  0  0  0  0  0  0  0  0
    1.1170    1.2150    1.3910 C   0  0  0  0  0  0  0  0  0  0  0  0
    2.5200    1.7870    1.5770 C   0  0  0  0  0  0  0  0  0  0  0  0
    2.6510    2.6140    2.8470 C   0  0  0  0  0  0  0  0  0  0  0  0
    1.7090    2.7840    3.6190 O   0  0  0  0  0  0  0  0  0  0  0  0
    4.0250    3.2150    3.0970 C   0  0  0  0  0  0  0  0  0  0  0  0
    4.0830    4.0300    4.3860 C   0  0  0  0  0  0  0  0  0  0  0  0
    5.4660    4.6190    4.6120 C   0  0  0  0  0  0  0  0  0  0  0  0
    0.0000    0.0000    0.0000 H   0  0  0  0  0  0  0  0  0  0  0  0
    0.0000    0.0000    0.0000 H   0  0  0  0  0  0  0  0  0  0  0  0
    0.0000    0.0000    0.0000 H   0  0  0  0  0  0  0  0  0  0  0  0
    0.0000    0.0000    0.0000 H   0  0  0  0  0  0  0  0  0  0  0  0
    0.0000    0.0000    0.0000 H   0  0  0  0  0  0  0  0  0  0  0  0
    0.0000    0.0000    0.0000 H   0  0  0  0  0  0  0  0  0  0  0  0
    0.0000    0.0000    0.0000 H   0  0  0  0  0  0  0  0  0  0  0  0
    0.0000    0.0000    0.0000 H   0  0  0  0  0  0  0  0  0  0  0  0
    0.0000    0.0000    0.0000 H   0  0  0  0  0  0  0  0  0  0  0  0
    0.0000    0.0000    0.0000 H   0  0  0  0  0  0  0  0  0  0  0  0
    0.0000    0.0000    0.0000 H   0  0  0  0  0  0  0  0  0  0  0  0
    0.0000    0.0000    0.0000 H   0  0  0  0  0  0  0  0  0  0  0  0
    0.0000    0.0000    0.0000 H   0  0  0  0  0  0  0  0  0  0  0  0
    0.0000    0.0000    0.0000 H   0  0  0  0  0  0  0  0  0  0  0  0
  1  2  1  0
  2  3  1  0
  3  4  1  0
  4  5  2  0
  4  6  1  0
  6  7  1  0
  7  8  1  0
  1  9  1  0
  1 10  1  0
  1 11  1  0
  2 12  1  0
  2 13  1  0
  3 14  1  0
  3 15  1  0
  6 16  1  0
  6 17  1  0
  7 18  1  0
  7 19  1  0
  8 20  1  0
  8 21  1  0
  8 22  1  0
M  END
>  <partial_charges>  (316) 
-0.0927999988198
-0.0759999975562
-0.179499998689
0.560800015926
-0.530600011349
-0.179499998689
-0.0759999975562
-0.0927999988198
0.0337999984622
0.0337999984622
0.0337999984622
0.0533000007272
0.0533000007272
0.0625
0.0625
0.0625
0.0625
0.0533000007272
0.0533000007272
0.0337999984622
0.0337999984622
0.0337999984622

>  <partial_bond_orders>  (316) 
1.0
1.0
1.0
2.0
1.0
1.0
1.0
1.0
1.0
1.0
1.0
1.0
1.0
1.0
1.0
1.0
1.0
1.0
1.0
1.0
1.0

>  <atom_types>  (316) 
c3
c3
c3
c
o
c3
c3
c3
hc
hc
hc
hc
hc
hc
hc
hc
hc
hc
hc
hc
hc
hc

>  <target>  (316) 
-2.92

>  <cal>  (316) 
-2.704

$$$$
mobley_49274
     RDKit          3D

 19 18  0  0  0  0  0  0  0  0999 V2000
    1.1700   -2.5540    0.5870 C   0  0  0  0  0  0  0  0  0  0  0  0
    0.6590   -1.2250    1.1200 C   0  0  0  0  0  0  0  0  0  0  0  0
   -0.0880   -0.4390    0.0410 C   0  0  0  0  0  0  0  0  0  0  0  0
   -0.6010    0.8990    0.5850 C   0  0  0  0  0  0  0  0  0  0  0  0
   -1.3560    1.7170   -0.4650 C   0  0  0  0  0  0  0  0  0  0  0  0
   -1.8420    2.9970    0.0690 C   0  0  0  0  0  0  0  0  0  0  0  0
   -2.2410    4.0440    0.5000 C   0  0  0  0  0  0  0  0  0  0  0  0
    0.0000    0.0000    0.0000 H   0  0  0  0  0  0  0  0  0  0  0  0
    0.0000    0.0000    0.0000 H   0  0  0  0  0  0  0  0  0  0  0  0
    0.0000    0.0000    0.0000 H   0  0  0  0  0  0  0  0  0  0  0  0
    0.0000    0.0000    0.0000 H   0  0  0  0  0  0  0  0  0  0  0  0
    0.0000    0.0000    0.0000 H   0  0  0  0  0  0  0  0  0  0  0  0
    0.0000    0.0000    0.0000 H   0  0  0  0  0  0  0  0  0  0  0  0
    0.0000    0.0000    0.0000 H   0  0  0  0  0  0  0  0  0  0  0  0
    0.0000    0.0000    0.0000 H   0  0  0  0  0  0  0  0  0  0  0  0
    0.0000    0.0000    0.0000 H   0  0  0  0  0  0  0  0  0  0  0  0
    0.0000    0.0000    0.0000 H   0  0  0  0  0  0  0  0  0  0  0  0
    0.0000    0.0000    0.0000 H   0  0  0  0  0  0  0  0  0  0  0  0
    0.0000    0.0000    0.0000 H   0  0  0  0  0  0  0  0  0  0  0  0
  1  2  1  0
  2  3  1  0
  3  4  1  0
  4  5  1  0
  5  6  1  0
  6  7  3  0
  1  8  1  0
  1  9  1  0
  1 10  1  0
  2 11  1  0
  2 12  1  0
  3 13  1  0
  3 14  1  0
  4 15  1  0
  4 16  1  0
  5 17  1  0
  5 18  1  0
  7 19  1  0
M  END
>  <partial_charges>  (317) 
-0.0925000011921
-0.0799999982119
-0.0797000005841
-0.075900003314
-0.00400000018999
-0.137799993157
-0.162699997425
0.0331999994814
0.0331999994814
0.0331999994814
0.0395000018179
0.0395000018179
0.0399999991059
0.0399999991059
0.0472000017762
0.0472000017762
0.0582000017166
0.0582000017166
0.163200005889

>  <partial_bond_orders>  (317) 
1.0
1.0
1.0
1.0
1.0
3.0
1.0
1.0
1.0
1.0
1.0
1.0
1.0
1.0
1.0
1.0
1.0
1.0

>  <atom_types>  (317) 
c3
c3
c3
c3
c3
c1
c1
hc
hc
hc
hc
hc
hc
hc
hc
hc
hc
hc
ha

>  <target>  (317) 
0.6

>  <cal>  (317) 
0.639

$$$$
mobley_20524
     RDKit          3D

 13 13  0  0  0  0  0  0  0  0999 V2000
    1.8850   -1.0360   -0.1120 C   0  0  0  0  0  0  0  0  0  0  0  0
    2.9210   -1.6310    0.6080 C   0  0  0  0  0  0  0  0  0  0  0  0
    2.8780   -1.6520    2.0020 C   0  0  0  0  0  0  0  0  0  0  0  0
    1.8000   -1.0790    2.6760 C   0  0  0  0  0  0  0  0  0  0  0  0
    0.7640   -0.4840    1.9550 C   0  0  0  0  0  0  0  0  0  0  0  0
    0.8070   -0.4630    0.5610 C   0  0  0  0  0  0  0  0  0  0  0  0
    1.7590   -1.0980    4.0360 O   0  0  0  0  0  0  0  0  0  0  0  0
    0.0000    0.0000    0.0000 H   0  0  0  0  0  0  0  0  0  0  0  0
    0.0000    0.0000    0.0000 H   0  0  0  0  0  0  0  0  0  0  0  0
    0.0000    0.0000    0.0000 H   0  0  0  0  0  0  0  0  0  0  0  0
    0.0000    0.0000    0.0000 H   0  0  0  0  0  0  0  0  0  0  0  0
    0.0000    0.0000    0.0000 H   0  0  0  0  0  0  0  0  0  0  0  0
    0.0000    0.0000    0.0000 H   0  0  0  0  0  0  0  0  0  0  0  0
  1  6  2  0
  1  2  1  0
  2  3  2  0
  3  4  1  0
  4  5  2  0
  5  6  1  0
  4  7  1  0
  1  8  1  0
  2  9  1  0
  3 10  1  0
  5 11  1  0
  6 12  1  0
  7 13  1  0
M  END
>  <partial_charges>  (318) 
-0.16590000689
-0.0939999967813
-0.18520000577
0.123000003397
-0.18520000577
-0.0939999967813
-0.498899996281
0.132400006056
0.13369999826
0.14090000093
0.14090000093
0.13369999826
0.41859999299

>  <partial_bond_orders>  (318) 
2.0
1.0
2.0
1.0
2.0
1.0
1.0
1.0
1.0
1.0
1.0
1.0
1.0

>  <atom_types>  (318) 
ca
ca
ca
ca
ca
ca
oh
ha
ha
ha
ha
ha
ho

>  <target>  (318) 
-6.6

>  <cal>  (318) 
-5.707

$$$$
mobley_7455579
     RDKit          3D

 17 16  0  0  0  0  0  0  0  0999 V2000
    0.9980   -0.3580   -0.2740 C   0  0  0  0  0  0  0  0  0  0  0  0
    1.8180    0.7470   -0.9440 C   0  0  0  0  0  0  0  0  0  0  0  0
    1.1580    1.1800   -2.2510 C   0  0  0  0  0  0  0  0  0  0  0  0
    1.9990    1.9490   -0.0130 C   0  0  0  0  0  0  0  0  0  0  0  0
    2.6750    1.5480    1.1710 O   0  0  0  0  0  0  0  0  0  0  0  0
    2.8990    2.5320    2.0860 C   0  0  0  0  0  0  0  0  0  0  0  0
    2.5840    3.7080    1.9980 O   0  0  0  0  0  0  0  0  0  0  0  0
    0.0000    0.0000    0.0000 H   0  0  0  0  0  0  0  0  0  0  0  0
    0.0000    0.0000    0.0000 H   0  0  0  0  0  0  0  0  0  0  0  0
    0.0000    0.0000    0.0000 H   0  0  0  0  0  0  0  0  0  0  0  0
    0.0000    0.0000    0.0000 H   0  0  0  0  0  0  0  0  0  0  0  0
    0.0000    0.0000    0.0000 H   0  0  0  0  0  0  0  0  0  0  0  0
    0.0000    0.0000    0.0000 H   0  0  0  0  0  0  0  0  0  0  0  0
    0.0000    0.0000    0.0000 H   0  0  0  0  0  0  0  0  0  0  0  0
    0.0000    0.0000    0.0000 H   0  0  0  0  0  0  0  0  0  0  0  0
    0.0000    0.0000    0.0000 H   0  0  0  0  0  0  0  0  0  0  0  0
    0.0000    0.0000    0.0000 H   0  0  0  0  0  0  0  0  0  0  0  0
  1  2  1  0
  2  3  1  0
  2  4  1  0
  4  5  1  0
  5  6  1  0
  6  7  2  0
  1  8  1  0
  1  9  1  0
  1 10  1  0
  2 11  1  0
  3 12  1  0
  3 13  1  0
  3 14  1  0
  4 15  1  0
  4 16  1  0
  6 17  1  0
M  END
>  <partial_charges>  (319) 
-0.0917000025511
-0.090300001204
-0.0917000025511
0.132499992847
-0.443100005388
0.630900025368
-0.541700005531
0.0388999991119
0.0388999991119
0.0388999991119
0.0551999993622
0.0388999991119
0.0388999991119
0.0388999991119
0.0650999993086
0.0650999993086
0.076099999249

>  <partial_bond_orders>  (319) 
1.0
1.0
1.0
1.0
1.0
2.0
1.0
1.0
1.0
1.0
1.0
1.0
1.0
1.0
1.0
1.0

>  <atom_types>  (319) 
c3
c3
c3
c3
os
c
o
hc
hc
hc
hc
hc
hc
hc
h1
h1
h5

>  <target>  (319) 
-2.22

>  <cal>  (319) 
-3.458

$$$$
mobley_8191186
     RDKit          3D

  8  7  0  0  0  0  0  0  0  0999 V2000
    0.6880   -0.1550   -0.2970 C   0  0  0  0  0  0  0  0  0  0  0  0
   -0.5960    0.1950    0.4140 C   0  0  0  0  0  0  0  0  0  0  0  0
   -1.4060   -0.8780    0.5320 F   0  0  0  0  0  0  0  0  0  0  0  0
   -1.2740    1.1650   -0.2360 F   0  0  0  0  0  0  0  0  0  0  0  0
   -0.3340    0.6460    1.6610 F   0  0  0  0  0  0  0  0  0  0  0  0
    0.3580   -0.7660   -1.9320 Cl  0  0  0  0  0  0  0  0  0  0  0  0
    0.0000    0.0000    0.0000 H   0  0  0  0  0  0  0  0  0  0  0  0
    0.0000    0.0000    0.0000 H   0  0  0  0  0  0  0  0  0  0  0  0
  1  2  1  0
  2  3  1  0
  2  4  1  0
  2  5  1  0
  1  6  1  0
  1  7  1  0
  1  8  1  0
M  END
>  <partial_charges>  (320) 
-0.0296999998391
0.624899983406
-0.229699999094
-0.229699999094
-0.229699999094
-0.112599998713
0.103299997747
0.103299997747

>  <partial_bond_orders>  (320) 
1.0
1.0
1.0
1.0
1.0
1.0
1.0

>  <atom_types>  (320) 
c3
c3
f
f
f
cl
h1
h1

>  <target>  (320) 
0.06

>  <cal>  (320) 
0.233

$$$$
mobley_7295828
     RDKit          3D

 16 16  0  0  0  0  0  0  0  0999 V2000
    0.8350   -0.3920   -2.1380 C   0  0  0  0  0  0  0  0  0  0  0  0
    1.9270   -1.0160   -1.4730 O   0  0  0  0  0  0  0  0  0  0  0  0
    1.8850   -1.0360   -0.1120 C   0  0  0  0  0  0  0  0  0  0  0  0
    2.9210   -1.6310    0.6080 C   0  0  0  0  0  0  0  0  0  0  0  0
    2.8780   -1.6520    2.0020 C   0  0  0  0  0  0  0  0  0  0  0  0
    1.8000   -1.0790    2.6760 C   0  0  0  0  0  0  0  0  0  0  0  0
    0.7640   -0.4840    1.9550 C   0  0  0  0  0  0  0  0  0  0  0  0
    0.8070   -0.4630    0.5610 C   0  0  0  0  0  0  0  0  0  0  0  0
    0.0000    0.0000    0.0000 H   0  0  0  0  0  0  0  0  0  0  0  0
    0.0000    0.0000    0.0000 H   0  0  0  0  0  0  0  0  0  0  0  0
    0.0000    0.0000    0.0000 H   0  0  0  0  0  0  0  0  0  0  0  0
    0.0000    0.0000    0.0000 H   0  0  0  0  0  0  0  0  0  0  0  0
    0.0000    0.0000    0.0000 H   0  0  0  0  0  0  0  0  0  0  0  0
    0.0000    0.0000    0.0000 H   0  0  0  0  0  0  0  0  0  0  0  0
    0.0000    0.0000    0.0000 H   0  0  0  0  0  0  0  0  0  0  0  0
    0.0000    0.0000    0.0000 H   0  0  0  0  0  0  0  0  0  0  0  0
  1  2  1  0
  2  3  1  0
  3  8  2  0
  3  4  1  0
  4  5  2  0
  5  6  1  0
  6  7  2  0
  7  8  1  0
  1  9  1  0
  1 10  1  0
  1 11  1  0
  4 12  1  0
  5 13  1  0
  6 14  1  0
  7 15  1  0
  8 16  1  0
M  END
>  <partial_charges>  (321) 
0.110200002789
-0.323700010777
0.119199998677
-0.179100006819
-0.0984999984503
-0.163499996066
-0.0984999984503
-0.179100006819
0.0439999997616
0.0439999997616
0.0439999997616
0.142199993134
0.131799995899
0.132899999619
0.131799995899
0.142199993134

>  <partial_bond_orders>  (321) 
1.0
1.0
2.0
1.0
2.0
1.0
2.0
1.0
1.0
1.0
1.0
1.0
1.0
1.0
1.0
1.0

>  <atom_types>  (321) 
c3
os
ca
ca
ca
ca
ca
ca
h1
h1
h1
ha
ha
ha
ha
ha

>  <target>  (321) 
-2.45

>  <cal>  (321) 
-2.318

$$$$
mobley_9741965
     RDKit          3D

 20 19  0  0  1  0  0  0  0  0999 V2000
    0.4750    0.8170   -0.5530 C   0  0  0  0  0  0  0  0  0  0  0  0
    0.5700    0.4920   -2.0370 C   0  0  0  0  0  0  0  0  0  0  0  0
    1.4090   -0.7630   -2.2850 C   0  0  0  0  0  0  0  0  0  0  0  0
    1.5160   -1.1080   -3.7660 C   0  0  0  0  0  0  0  0  0  0  0  0
    2.3070   -2.2800   -3.9070 O   0  0  0  0  0  0  0  0  0  0  0  0
    2.4740   -2.6940   -5.2580 N   0  0  0  0  0  0  0  0  0  0  0  0
    1.9330   -2.0160   -6.1340 O   0  0  0  0  0  0  0  0  0  0  0  0
    3.1620   -3.7110   -5.3660 O   0  0  0  0  0  0  0  0  0  0  0  0
   -0.7470    0.3090   -2.5500 O   0  0  0  0  0  0  0  0  0  0  0  0
   -1.4200    1.5300   -2.8270 N   0  0  0  0  0  0  0  0  0  0  0  0
   -0.8160    2.5810   -2.6030 O   0  0  0  0  0  0  0  0  0  0  0  0
   -2.5560    1.3570   -3.2710 O   0  0  0  0  0  0  0  0  0  0  0  0
    0.0000    0.0000    0.0000 H   0  0  0  0  0  0  0  0  0  0  0  0
    0.0000    0.0000    0.0000 H   0  0  0  0  0  0  0  0  0  0  0  0
    0.0000    0.0000    0.0000 H   0  0  0  0  0  0  0  0  0  0  0  0
    0.0000    0.0000    0.0000 H   0  0  0  0  0  0  0  0  0  0  0  0
    0.0000    0.0000    0.0000 H   0  0  0  0  0  0  0  0  0  0  0  0
    0.0000    0.0000    0.0000 H   0  0  0  0  0  0  0  0  0  0  0  0
    0.0000    0.0000    0.0000 H   0  0  0  0  0  0  0  0  0  0  0  0
    0.0000    0.0000    0.0000 H   0  0  0  0  0  0  0  0  0  0  0  0
  1  2  1  0
  2  3  1  0
  3  4  1  0
  4  5  1  0
  5  6  1  0
  6  7  1  0
  6  8  1  0
  2  9  1  0
  9 10  1  0
 10 11  1  0
 10 12  1  0
  1 13  1  0
  1 14  1  0
  1 15  1  0
  2 16  1  0
  3 17  1  0
  3 18  1  0
  4 19  1  0
  4 20  1  0
M  CHG  4   7  -1   8  -1  11  -1  12  -1
M  END
>  <partial_charges>  (322) 
-0.14319999516
0.155799999833
0.0706999972463
-0.0890000015497
0.124099999666
-0.345600008965
0.377200007439
-0.174400001764
-0.174400001764
-0.367700010538
0.370499998331
-0.159500002861
-0.159500002861
0.063299998641
0.063299998641
0.063299998641
0.0870999991894
0.0870999991894
0.0754000023007
0.0754000023007

>  <partial_bond_orders>  (322) 
1.0
1.0
1.0
1.0
1.0
1.0
1.0
1.0
1.0
1.0
1.0
1.0
1.0
1.0
1.0
1.0
1.0
1.0
1.0

>  <atom_types>  (322) 
c3
c3
h1
c3
c3
os
no
o
o
os
no
o
o
hc
hc
hc
hc
hc
h1
h1

>  <target>  (322) 
-4.29

>  <cal>  (322) 
-4.944

$$$$
mobley_7814642
     RDKit          3D

 12 12  0  0  0  0  0  0  0  0999 V2000
    1.8850   -1.0360   -0.1120 C   0  0  0  0  0  0  0  0  0  0  0  0
    2.9210   -1.6310    0.6080 C   0  0  0  0  0  0  0  0  0  0  0  0
    2.8780   -1.6520    2.0020 C   0  0  0  0  0  0  0  0  0  0  0  0
    1.8000   -1.0790    2.6760 C   0  0  0  0  0  0  0  0  0  0  0  0
    0.7640   -0.4840    1.9550 C   0  0  0  0  0  0  0  0  0  0  0  0
    0.8070   -0.4630    0.5610 C   0  0  0  0  0  0  0  0  0  0  0  0
   -0.4720    0.2690   -0.3290 Cl  0  0  0  0  0  0  0  0  0  0  0  0
    1.6890   -1.0750    4.4010 Cl  0  0  0  0  0  0  0  0  0  0  0  0
    4.1900   -2.4060    2.8380 Cl  0  0  0  0  0  0  0  0  0  0  0  0
    0.0000    0.0000    0.0000 H   0  0  0  0  0  0  0  0  0  0  0  0
    0.0000    0.0000    0.0000 H   0  0  0  0  0  0  0  0  0  0  0  0
    0.0000    0.0000    0.0000 H   0  0  0  0  0  0  0  0  0  0  0  0
  1  6  2  0
  1  2  1  0
  2  3  2  0
  3  4  1  0
  4  5  2  0
  5  6  1  0
  6  7  1  0
  4  8  1  0
  3  9  1  0
  1 10  1  0
  2 11  1  0
  5 12  1  0
M  END
>  <partial_charges>  (323) 
-0.11779999733
-0.109399996698
0.0159000009298
0.025399999693
-0.114200003445
0.0228000003844
-0.0773999989033
-0.0623999983072
-0.0608999989927
0.155599996448
0.156599998474
0.16590000689

>  <partial_bond_orders>  (323) 
2.0
1.0
2.0
1.0
2.0
1.0
1.0
1.0
1.0
1.0
1.0
1.0

>  <atom_types>  (323) 
ca
ca
ca
ca
ca
ca
cl
cl
cl
ha
ha
ha

>  <target>  (323) 
-1.12

>  <cal>  (323) 
-0.117

$$$$
mobley_7375018
     RDKit          3D

 34 33  0  0  0  0  0  0  0  0999 V2000
   -0.5220   -5.4690   -3.4160 C   0  0  0  0  0  0  0  0  0  0  0  0
    0.6740   -4.5880   -3.0920 C   0  0  0  0  0  0  0  0  0  0  0  0
    0.2970   -3.4660   -2.1250 C   0  0  0  0  0  0  0  0  0  0  0  0
    1.5040   -2.5820   -1.8020 C   0  0  0  0  0  0  0  0  0  0  0  0
    1.1240   -1.4590   -0.8350 C   0  0  0  0  0  0  0  0  0  0  0  0
    2.2960   -0.5400   -0.4750 C   0  0  0  0  0  0  0  0  0  0  0  0
    1.9740    0.6050    0.4920 C   0  0  0  0  0  0  0  0  0  0  0  0
    3.1850    1.4880    0.8130 C   0  0  0  0  0  0  0  0  0  0  0  0
    2.8370    2.6200    1.7790 C   0  0  0  0  0  0  0  0  0  0  0  0
    4.0150    3.5180    2.1210 C   0  0  0  0  0  0  0  0  0  0  0  0
    5.1430    3.3450    1.6600 O   0  0  0  0  0  0  0  0  0  0  0  0
    3.7220    4.6750    3.0390 C   0  0  0  0  0  0  0  0  0  0  0  0
    0.0000    0.0000    0.0000 H   0  0  0  0  0  0  0  0  0  0  0  0
    0.0000    0.0000    0.0000 H   0  0  0  0  0  0  0  0  0  0  0  0
    0.0000    0.0000    0.0000 H   0  0  0  0  0  0  0  0  0  0  0  0
    0.0000    0.0000    0.0000 H   0  0  0  0  0  0  0  0  0  0  0  0
    0.0000    0.0000    0.0000 H   0  0  0  0  0  0  0  0  0  0  0  0
    0.0000    0.0000    0.0000 H   0  0  0  0  0  0  0  0  0  0  0  0
    0.0000    0.0000    0.0000 H   0  0  0  0  0  0  0  0  0  0  0  0
    0.0000    0.0000    0.0000 H   0  0  0  0  0  0  0  0  0  0  0  0
    0.0000    0.0000    0.0000 H   0  0  0  0  0  0  0  0  0  0  0  0
    0.0000    0.0000    0.0000 H   0  0  0  0  0  0  0  0  0  0  0  0
    0.0000    0.0000    0.0000 H   0  0  0  0  0  0  0  0  0  0  0  0
    0.0000    0.0000    0.0000 H   0  0  0  0  0  0  0  0  0  0  0  0
    0.0000    0.0000    0.0000 H   0  0  0  0  0  0  0  0  0  0  0  0
    0.0000    0.0000    0.0000 H   0  0  0  0  0  0  0  0  0  0  0  0
    0.0000    0.0000    0.0000 H   0  0  0  0  0  0  0  0  0  0  0  0
    0.0000    0.0000    0.0000 H   0  0  0  0  0  0  0  0  0  0  0  0
    0.0000    0.0000    0.0000 H   0  0  0  0  0  0  0  0  0  0  0  0
    0.0000    0.0000    0.0000 H   0  0  0  0  0  0  0  0  0  0  0  0
    0.0000    0.0000    0.0000 H   0  0  0  0  0  0  0  0  0  0  0  0
    0.0000    0.0000    0.0000 H   0  0  0  0  0  0  0  0  0  0  0  0
    0.0000    0.0000    0.0000 H   0  0  0  0  0  0  0  0  0  0  0  0
    0.0000    0.0000    0.0000 H   0  0  0  0  0  0  0  0  0  0  0  0
  1  2  1  0
  2  3  1  0
  3  4  1  0
  4  5  1  0
  5  6  1  0
  6  7  1  0
  7  8  1  0
  8  9  1  0
  9 10  1  0
 10 11  2  0
 10 12  1  0
  1 13  1  0
  1 14  1  0
  1 15  1  0
  2 16  1  0
  2 17  1  0
  3 18  1  0
  3 19  1  0
  4 20  1  0
  4 21  1  0
  5 22  1  0
  5 23  1  0
  6 24  1  0
  6 25  1  0
  7 26  1  0
  7 27  1  0
  8 28  1  0
  8 29  1  0
  9 30  1  0
  9 31  1  0
 12 32  1  0
 12 33  1  0
 12 34  1  0
M  END
>  <partial_charges>  (324) 
-0.0913999974728
-0.0798999965191
-0.0781000033021
-0.0769999995828
-0.0777999982238
-0.0781000033021
-0.076099999249
-0.0749000012875
-0.180199995637
0.563199996948
-0.531300008297
-0.203600004315
0.033100001514
0.033100001514
0.033100001514
0.0379999987781
0.0379999987781
0.0375999994576
0.0375999994576
0.0392000004649
0.0392000004649
0.0377999991179
0.0377999991179
0.0414999984205
0.0414999984205
0.0373999997973
0.0373999997973
0.0540999993682
0.0540999993682
0.0630000010133
0.0630000010133
0.0627999976277
0.0627999976277
0.0627999976277

>  <partial_bond_orders>  (324) 
1.0
1.0
1.0
1.0
1.0
1.0
1.0
1.0
1.0
2.0
1.0
1.0
1.0
1.0
1.0
1.0
1.0
1.0
1.0
1.0
1.0
1.0
1.0
1.0
1.0
1.0
1.0
1.0
1.0
1.0
1.0
1.0
1.0

>  <atom_types>  (324) 
c3
c3
c3
c3
c3
c3
c3
c3
c3
c
o
c3
hc
hc
hc
hc
hc
hc
hc
hc
hc
hc
hc
hc
hc
hc
hc
hc
hc
hc
hc
hc
hc
hc

>  <target>  (324) 
-2.15

>  <cal>  (324) 
-2.201

$$$$
mobley_2659552
     RDKit          3D

 25 25  0  0  0  0  0  0  0  0999 V2000
    1.7460   -1.1740   -1.6530 C   0  0  0  0  0  0  0  0  0  0  0  0
    1.7430   -1.1590   -0.1620 C   0  0  0  0  0  0  0  0  0  0  0  0
    2.8020   -1.7300    0.5440 C   0  0  0  0  0  0  0  0  0  0  0  0
    2.7980   -1.7150    1.9390 C   0  0  0  0  0  0  0  0  0  0  0  0
    1.7360   -1.1290    2.6280 C   0  0  0  0  0  0  0  0  0  0  0  0
    0.6770   -0.5580    1.9210 C   0  0  0  0  0  0  0  0  0  0  0  0
    0.6810   -0.5730    0.5270 C   0  0  0  0  0  0  0  0  0  0  0  0
    1.7320   -1.1140    4.0820 C   0  0  0  0  0  0  0  0  0  0  0  0
    1.2020   -2.0770    4.6520 O   0  0  0  0  0  0  0  0  0  0  0  0
    2.3080   -0.0190    4.7530 N   0  0  0  0  0  0  0  0  0  0  0  0
    2.3280    0.0750    6.2060 C   0  0  0  0  0  0  0  0  0  0  0  0
    2.9230    1.0960    4.0370 C   0  0  0  0  0  0  0  0  0  0  0  0
    0.0000    0.0000    0.0000 H   0  0  0  0  0  0  0  0  0  0  0  0
    0.0000    0.0000    0.0000 H   0  0  0  0  0  0  0  0  0  0  0  0
    0.0000    0.0000    0.0000 H   0  0  0  0  0  0  0  0  0  0  0  0
    0.0000    0.0000    0.0000 H   0  0  0  0  0  0  0  0  0  0  0  0
    0.0000    0.0000    0.0000 H   0  0  0  0  0  0  0  0  0  0  0  0
    0.0000    0.0000    0.0000 H   0  0  0  0  0  0  0  0  0  0  0  0
    0.0000    0.0000    0.0000 H   0  0  0  0  0  0  0  0  0  0  0  0
    0.0000    0.0000    0.0000 H   0  0  0  0  0  0  0  0  0  0  0  0
    0.0000    0.0000    0.0000 H   0  0  0  0  0  0  0  0  0  0  0  0
    0.0000    0.0000    0.0000 H   0  0  0  0  0  0  0  0  0  0  0  0
    0.0000    0.0000    0.0000 H   0  0  0  0  0  0  0  0  0  0  0  0
    0.0000    0.0000    0.0000 H   0  0  0  0  0  0  0  0  0  0  0  0
    0.0000    0.0000    0.0000 H   0  0  0  0  0  0  0  0  0  0  0  0
  1  2  1  0
  2  7  2  0
  2  3  1  0
  3  4  2  0
  4  5  1  0
  5  6  2  0
  6  7  1  0
  5  8  1  0
  8  9  2  0
  8 10  1  0
 10 11  1  0
 10 12  1  0
  1 13  1  0
  1 14  1  0
  1 15  1  0
  3 16  1  0
  4 17  1  0
  6 18  1  0
  7 19  1  0
 11 20  1  0
 11 21  1  0
 11 22  1  0
 12 23  1  0
 12 24  1  0
 12 25  1  0
M  END
>  <partial_charges>  (325) 
-0.0586000010371
-0.0631000027061
-0.134100005031
-0.0965000018477
-0.132899999619
-0.0965000018477
-0.134100005031
0.672399997711
-0.59249997139
-0.4837000072
0.083599999547
0.083599999547
0.0469000004232
0.0469000004232
0.0469000004232
0.136500000954
0.141499996185
0.141499996185
0.136500000954
0.0425999984145
0.0425999984145
0.0425999984145
0.0425999984145
0.0425999984145
0.0425999984145

>  <partial_bond_orders>  (325) 
1.0
2.0
1.0
2.0
1.0
2.0
1.0
1.0
2.0
1.0
1.0
1.0
1.0
1.0
1.0
1.0
1.0
1.0
1.0
1.0
1.0
1.0
1.0
1.0
1.0

>  <atom_types>  (325) 
c3
ca
ca
ca
ca
ca
ca
c
o
n
c3
c3
hc
hc
hc
ha
ha
ha
ha
h1
h1
h1
h1
h1
h1

>  <target>  (325) 
-9.76

>  <cal>  (325) 
-8.081

$$$$
mobley_8827942
     RDKit          3D

 22 24  0  0  0  0  0  0  0  0999 V2000
   -1.8580    0.7400    0.8000 C   0  0  0  0  0  0  0  0  0  0  0  0
   -1.0040   -0.2570    0.3260 C   0  0  0  0  0  0  0  0  0  0  0  0
   -1.4370   -1.5820    0.2690 C   0  0  0  0  0  0  0  0  0  0  0  0
   -2.7270   -1.9050    0.6890 C   0  0  0  0  0  0  0  0  0  0  0  0
   -3.5800   -0.9100    1.1630 C   0  0  0  0  0  0  0  0  0  0  0  0
   -3.1490    0.4150    1.2200 C   0  0  0  0  0  0  0  0  0  0  0  0
   -4.8560   -1.1830    1.5850 O   0  0  0  0  0  0  0  0  0  0  0  0
   -5.2390   -2.4980    1.5120 C   0  0  0  0  0  0  0  0  0  0  0  0
   -6.5290   -2.8210    1.9320 C   0  0  0  0  0  0  0  0  0  0  0  0
   -6.9620   -4.1460    1.8750 C   0  0  0  0  0  0  0  0  0  0  0  0
   -6.1070   -5.1430    1.4010 C   0  0  0  0  0  0  0  0  0  0  0  0
   -4.8170   -4.8180    0.9820 C   0  0  0  0  0  0  0  0  0  0  0  0
   -4.3860   -3.4940    1.0380 C   0  0  0  0  0  0  0  0  0  0  0  0
   -3.1090   -3.2200    0.6160 O   0  0  0  0  0  0  0  0  0  0  0  0
   -3.7390   -6.0420    0.3890 Cl  0  0  0  0  0  0  0  0  0  0  0  0
   -6.7140   -6.7630    1.3600 Cl  0  0  0  0  0  0  0  0  0  0  0  0
   -7.6140   -1.6170    2.5250 Cl  0  0  0  0  0  0  0  0  0  0  0  0
    0.0000    0.0000    0.0000 H   0  0  0  0  0  0  0  0  0  0  0  0
    0.0000    0.0000    0.0000 H   0  0  0  0  0  0  0  0  0  0  0  0
    0.0000    0.0000    0.0000 H   0  0  0  0  0  0  0  0  0  0  0  0
    0.0000    0.0000    0.0000 H   0  0  0  0  0  0  0  0  0  0  0  0
    0.0000    0.0000    0.0000 H   0  0  0  0  0  0  0  0  0  0  0  0
  1  6  2  0
  1  2  1  0
  2  3  2  0
  3  4  1  0
  4 14  1  0
  4  5  2  0
  5  6  1  0
  5  7  1  0
  7  8  1  0
  8 13  2  0
  8  9  1  0
  9 10  2  0
 10 11  1  0
 11 12  2  0
 12 13  1  0
 13 14  1  0
 12 15  1  0
 11 16  1  0
  9 17  1  0
  1 18  1  0
  2 19  1  0
  3 20  1  0
  6 21  1  0
 10 22  1  0
M  END
>  <partial_charges>  (326) 
-0.124499998987
-0.124099999666
-0.109399996698
0.0590999983251
0.0584999993443
-0.110399998724
-0.207499995828
0.0772999972105
0.0293000005186
-0.117700003088
0.0222999993712
0.0219999998808
0.0866999998689
-0.209000006318
-0.0291000008583
-0.0526000000536
-0.0441000014544
0.142399996519
0.142599999905
0.159299999475
0.158999994397
0.170200005174

>  <partial_bond_orders>  (326) 
2.0
1.0
2.0
1.0
1.0
2.0
1.0
1.0
1.0
2.0
1.0
2.0
1.0
2.0
1.0
1.0
1.0
1.0
1.0
1.0
1.0
1.0
1.0
1.0

>  <atom_types>  (326) 
ca
ca
ca
ca
ca
ca
os
ca
ca
ca
ca
ca
ca
os
cl
cl
cl
ha
ha
ha
ha
ha

>  <target>  (326) 
-4.05

>  <cal>  (326) 
-3.16

$$$$
mobley_2792521
     RDKit          3D

 17 16  0  0  0  0  0  0  0  0999 V2000
    0.9550    2.2990    1.2340 C   0  0  0  0  0  0  0  0  0  0  0  0
    0.4480    0.8720    1.0980 C   0  0  0  0  0  0  0  0  0  0  0  0
    0.4880    0.4000   -0.3560 C   0  0  0  0  0  0  0  0  0  0  0  0
   -0.0130   -1.0090   -0.4860 C   0  0  0  0  0  0  0  0  0  0  0  0
   -1.0700   -1.3470   -1.2350 C   0  0  0  0  0  0  0  0  0  0  0  0
   -1.4790   -2.7630   -1.3020 C   0  0  0  0  0  0  0  0  0  0  0  0
   -2.4380   -3.1290   -1.9710 O   0  0  0  0  0  0  0  0  0  0  0  0
    0.0000    0.0000    0.0000 H   0  0  0  0  0  0  0  0  0  0  0  0
    0.0000    0.0000    0.0000 H   0  0  0  0  0  0  0  0  0  0  0  0
    0.0000    0.0000    0.0000 H   0  0  0  0  0  0  0  0  0  0  0  0
    0.0000    0.0000    0.0000 H   0  0  0  0  0  0  0  0  0  0  0  0
    0.0000    0.0000    0.0000 H   0  0  0  0  0  0  0  0  0  0  0  0
    0.0000    0.0000    0.0000 H   0  0  0  0  0  0  0  0  0  0  0  0
    0.0000    0.0000    0.0000 H   0  0  0  0  0  0  0  0  0  0  0  0
    0.0000    0.0000    0.0000 H   0  0  0  0  0  0  0  0  0  0  0  0
    0.0000    0.0000    0.0000 H   0  0  0  0  0  0  0  0  0  0  0  0
    0.0000    0.0000    0.0000 H   0  0  0  0  0  0  0  0  0  0  0  0
  1  2  1  0
  2  3  1  0
  3  4  1  0
  4  5  2  0
  5  6  1  0
  6  7  2  0
  1  8  1  0
  1  9  1  0
  1 10  1  0
  2 11  1  0
  2 12  1  0
  3 13  1  0
  3 14  1  0
  4 15  1  0
  5 16  1  0
  6 17  1  0
M  END
>  <partial_charges>  (327) 
-0.0938000008464
-0.0763000026345
-0.0652000010014
-0.0899000018835
-0.274300009012
0.557900011539
-0.525600016117
0.0364000014961
0.0364000014961
0.0364000014961
0.0432000011206
0.0432000011206
0.0555000007153
0.0555000007153
0.121699996293
0.149800002575
-0.0109000001103

>  <partial_bond_orders>  (327) 
1.0
1.0
1.0
2.0
1.0
2.0
1.0
1.0
1.0
1.0
1.0
1.0
1.0
1.0
1.0
1.0

>  <atom_types>  (327) 
c3
c3
c3
c2
ce
c
o
hc
hc
hc
hc
hc
hc
hc
ha
ha
h4

>  <target>  (327) 
-3.68

>  <cal>  (327) 
-3.123

$$$$
mobley_5200358
     RDKit          3D

 26 25  0  0  0  0  0  0  0  0999 V2000
    0.7670    0.3740    0.6880 C   0  0  0  0  0  0  0  0  0  0  0  0
    2.1340    0.4190    0.0040 C   0  0  0  0  0  0  0  0  0  0  0  0
    2.1060    1.3690   -1.1950 C   0  0  0  0  0  0  0  0  0  0  0  0
    2.6040   -0.9450   -0.4690 C   0  0  0  0  0  0  0  0  0  0  0  0
    1.9360   -1.6470   -1.3250 N   0  0  0  0  0  0  0  0  0  0  0  0
    0.7850   -0.9340   -1.6880 O   0  0  0  0  0  0  0  0  0  0  0  0
    0.0740   -1.6730   -2.5940 C   0  0  0  0  0  0  0  0  0  0  0  0
    0.4010   -2.7790   -3.0130 O   0  0  0  0  0  0  0  0  0  0  0  0
   -1.0620   -0.9810   -2.9610 N   0  0  0  0  0  0  0  0  0  0  0  0
   -2.0330   -1.4800   -3.9080 C   0  0  0  0  0  0  0  0  0  0  0  0
    3.3860    1.0050    1.2060 S   0  0  0  0  0  0  0  0  0  0  0  0
    2.6530    2.6160    1.5590 C   0  0  0  0  0  0  0  0  0  0  0  0
    0.0000    0.0000    0.0000 H   0  0  0  0  0  0  0  0  0  0  0  0
    0.0000    0.0000    0.0000 H   0  0  0  0  0  0  0  0  0  0  0  0
    0.0000    0.0000    0.0000 H   0  0  0  0  0  0  0  0  0  0  0  0
    0.0000    0.0000    0.0000 H   0  0  0  0  0  0  0  0  0  0  0  0
    0.0000    0.0000    0.0000 H   0  0  0  0  0  0  0  0  0  0  0  0
    0.0000    0.0000    0.0000 H   0  0  0  0  0  0  0  0  0  0  0  0
    0.0000    0.0000    0.0000 H   0  0  0  0  0  0  0  0  0  0  0  0
    0.0000    0.0000    0.0000 H   0  0  0  0  0  0  0  0  0  0  0  0
    0.0000    0.0000    0.0000 H   0  0  0  0  0  0  0  0  0  0  0  0
    0.0000    0.0000    0.0000 H   0  0  0  0  0  0  0  0  0  0  0  0
    0.0000    0.0000    0.0000 H   0  0  0  0  0  0  0  0  0  0  0  0
    0.0000    0.0000    0.0000 H   0  0  0  0  0  0  0  0  0  0  0  0
    0.0000    0.0000    0.0000 H   0  0  0  0  0  0  0  0  0  0  0  0
    0.0000    0.0000    0.0000 H   0  0  0  0  0  0  0  0  0  0  0  0
  1  2  1  0
  2  3  1  0
  2  4  1  0
  4  5  2  0
  5  6  1  0
  6  7  1  0
  7  8  2  0
  7  9  1  0
  9 10  1  0
  2 11  1  0
 11 12  1  0
  1 13  1  0
  1 14  1  0
  1 15  1  0
  3 16  1  0
  3 17  1  0
  3 18  1  0
  4 19  1  0
  9 20  1  0
 10 21  1  0
 10 22  1  0
 10 23  1  0
 12 24  1  0
 12 25  1  0
 12 26  1  0
M  END
>  <partial_charges>  (328) 
-0.0922000035644
-0.0317000001669
-0.0922000035644
0.381799995899
-0.366800010204
-0.25799998641
0.765399992466
-0.519100010395
-0.563899993896
0.0936999991536
-0.300599992275
-0.034699998796
0.0496000014246
0.0496000014246
0.0496000014246
0.0496000014246
0.0496000014246
0.0496000014246
0.0575000010431
0.327100008726
0.0472999997437
0.0472999997437
0.0472999997437
0.0646999999881
0.0646999999881
0.0646999999881

>  <partial_bond_orders>  (328) 
1.0
1.0
1.0
2.0
1.0
1.0
2.0
1.0
1.0
1.0
1.0
1.0
1.0
1.0
1.0
1.0
1.0
1.0
1.0
1.0
1.0
1.0
1.0
1.0
1.0

>  <atom_types>  (328) 
c3
c3
c3
c2
n2
os
c
o
n
c3
ss
c3
hc
hc
hc
hc
hc
hc
h4
hn
h1
h1
h1
h1
h1
h1

>  <target>  (328) 
-9.84

>  <cal>  (328) 
-9.679

$$$$
mobley_8823527
     RDKit          3D

 22 23  0  0  0  0  0  0  0  0999 V2000
    1.8850   -1.0360   -0.1120 C   0  0  0  0  0  0  0  0  0  0  0  0
    2.9210   -1.6310    0.6080 C   0  0  0  0  0  0  0  0  0  0  0  0
    2.8780   -1.6520    2.0020 C   0  0  0  0  0  0  0  0  0  0  0  0
    1.8000   -1.0790    2.6760 C   0  0  0  0  0  0  0  0  0  0  0  0
    0.7640   -0.4840    1.9550 C   0  0  0  0  0  0  0  0  0  0  0  0
    0.8070   -0.4630    0.5610 C   0  0  0  0  0  0  0  0  0  0  0  0
   -0.4710    0.2700   -0.3290 Cl  0  0  0  0  0  0  0  0  0  0  0  0
    1.7150   -1.0780    4.1240 C   0  0  0  0  0  0  0  0  0  0  0  0
    1.0910   -2.1350    4.7870 C   0  0  0  0  0  0  0  0  0  0  0  0
    1.0090   -2.1350    6.1790 C   0  0  0  0  0  0  0  0  0  0  0  0
    1.5520   -1.0770    6.9090 C   0  0  0  0  0  0  0  0  0  0  0  0
    2.1760   -0.0200    6.2470 C   0  0  0  0  0  0  0  0  0  0  0  0
    2.2580   -0.0210    4.8540 C   0  0  0  0  0  0  0  0  0  0  0  0
    2.8720    1.3250    7.0840 Cl  0  0  0  0  0  0  0  0  0  0  0  0
    1.4490   -1.0760    8.6440 Cl  0  0  0  0  0  0  0  0  0  0  0  0
    0.2200   -3.4790    6.9300 Cl  0  0  0  0  0  0  0  0  0  0  0  0
    4.1900   -2.4030    2.8440 Cl  0  0  0  0  0  0  0  0  0  0  0  0
    0.0000    0.0000    0.0000 H   0  0  0  0  0  0  0  0  0  0  0  0
    0.0000    0.0000    0.0000 H   0  0  0  0  0  0  0  0  0  0  0  0
    0.0000    0.0000    0.0000 H   0  0  0  0  0  0  0  0  0  0  0  0
    0.0000    0.0000    0.0000 H   0  0  0  0  0  0  0  0  0  0  0  0
    0.0000    0.0000    0.0000 H   0  0  0  0  0  0  0  0  0  0  0  0
  1  6  2  0
  1  2  1  0
  2  3  2  0
  3  4  1  0
  4  5  2  0
  5  6  1  0
  6  7  1  0
  4  8  1  0
  8 13  1  0
  8  9  2  0
  9 10  1  0
 10 11  2  0
 11 12  1  0
 12 13  2  0
 12 14  1  0
 11 15  1  0
 10 16  1  0
  3 17  1  0
  1 18  1  0
  2 19  1  0
  5 20  1  0
  9 21  1  0
 13 22  1  0
M  END
>  <partial_charges>  (329) 
-0.111100003123
-0.118600003421
0.0300999991596
-0.0379999987781
-0.101099997759
0.0141000002623
-0.0788000002503
-0.0307999998331
-0.097199998796
0.0216000005603
0.0214000009
0.0216000005603
-0.097199998796
-0.0586999990046
-0.0421000011265
-0.0586999990046
-0.0702000036836
0.154100000858
0.155599996448
0.159799993038
0.16210000217
0.16210000217

>  <partial_bond_orders>  (329) 
2.0
1.0
2.0
1.0
2.0
1.0
1.0
1.0
2.0
1.0
2.0
1.0
2.0
1.0
1.0
1.0
1.0
1.0
1.0
1.0
1.0
1.0
1.0

>  <atom_types>  (329) 
ca
ca
ca
cp
ca
ca
cl
cp
ca
ca
ca
ca
ca
cl
cl
cl
cl
ha
ha
ha
ha
ha

>  <target>  (329) 
-3.61

>  <cal>  (329) 
-0.922

$$$$
mobley_3210206
     RDKit          3D

 17 16  0  0  1  0  0  0  0  0999 V2000
   -0.4240    0.8110    0.6000 C   0  0  0  0  0  0  0  0  0  0  0  0
   -0.1830    0.5830    2.0850 C   0  0  0  0  0  0  0  0  0  0  0  0
   -0.8750    1.6440    2.9310 C   0  0  0  0  0  0  0  0  0  0  0  0
   -0.6160    1.3810    4.3060 O   0  0  0  0  0  0  0  0  0  0  0  0
   -1.2210    2.3190    5.1860 N   0  0  0  0  0  0  0  0  0  0  0  0
   -1.8830    3.2300    4.6850 O   0  0  0  0  0  0  0  0  0  0  0  0
   -0.9890    2.0790    6.3720 O   0  0  0  0  0  0  0  0  0  0  0  0
   -0.7100   -0.6920    2.4480 O   0  0  0  0  0  0  0  0  0  0  0  0
    0.1490   -1.7720    2.1100 N   0  0  0  0  0  0  0  0  0  0  0  0
    1.2190   -1.5060    1.5590 O   0  0  0  0  0  0  0  0  0  0  0  0
   -0.3180   -2.8670    2.4290 O   0  0  0  0  0  0  0  0  0  0  0  0
    0.0000    0.0000    0.0000 H   0  0  0  0  0  0  0  0  0  0  0  0
    0.0000    0.0000    0.0000 H   0  0  0  0  0  0  0  0  0  0  0  0
    0.0000    0.0000    0.0000 H   0  0  0  0  0  0  0  0  0  0  0  0
    0.0000    0.0000    0.0000 H   0  0  0  0  0  0  0  0  0  0  0  0
    0.0000    0.0000    0.0000 H   0  0  0  0  0  0  0  0  0  0  0  0
    0.0000    0.0000    0.0000 H   0  0  0  0  0  0  0  0  0  0  0  0
  1  2  1  0
  2  3  1  0
  3  4  1  0
  4  5  1  0
  5  6  1  0
  5  7  1  0
  2  8  1  0
  8  9  1  0
  9 10  1  0
  9 11  1  0
  1 12  1  0
  1 13  1  0
  1 14  1  0
  2 15  1  0
  3 16  1  0
  3 17  1  0
M  CHG  4   6  -1   7  -1  10  -1  11  -1
M  END
>  <partial_charges>  (330) 
-0.136600002646
0.151299998164
0.102899998426
0.123400002718
-0.352100014687
0.38069999218
-0.165800005198
-0.165800005198
-0.370200008154
0.384299993515
-0.173099994659
-0.173099994659
0.0680999979377
0.0680999979377
0.0680999979377
0.0948999971151
0.0948999971151

>  <partial_bond_orders>  (330) 
1.0
1.0
1.0
1.0
1.0
1.0
1.0
1.0
1.0
1.0
1.0
1.0
1.0
1.0
1.0
1.0

>  <atom_types>  (330) 
c3
c3
h1
c3
os
no
o
o
os
no
o
o
hc
hc
hc
h1
h1

>  <target>  (330) 
-4.95

>  <cal>  (330) 
-5.646

$$$$
mobley_9717937
     RDKit          3D

 22 23  0  0  0  0  0  0  0  0999 V2000
    1.8850   -1.0360   -0.1120 C   0  0  0  0  0  0  0  0  0  0  0  0
    2.9210   -1.6310    0.6080 C   0  0  0  0  0  0  0  0  0  0  0  0
    2.8780   -1.6520    2.0020 C   0  0  0  0  0  0  0  0  0  0  0  0
    1.8000   -1.0790    2.6760 C   0  0  0  0  0  0  0  0  0  0  0  0
    0.7640   -0.4840    1.9550 C   0  0  0  0  0  0  0  0  0  0  0  0
    0.8070   -0.4630    0.5610 C   0  0  0  0  0  0  0  0  0  0  0  0
    1.7550   -1.1010    4.1220 C   0  0  0  0  0  0  0  0  0  0  0  0
    1.1410   -2.1870    4.7450 C   0  0  0  0  0  0  0  0  0  0  0  0
    1.0760   -2.2470    6.1370 C   0  0  0  0  0  0  0  0  0  0  0  0
    1.6250   -1.2210    6.9060 C   0  0  0  0  0  0  0  0  0  0  0  0
    2.2400   -0.1350    6.2820 C   0  0  0  0  0  0  0  0  0  0  0  0
    2.3040   -0.0740    4.8900 C   0  0  0  0  0  0  0  0  0  0  0  0
    3.0780    1.2960    4.1720 Cl  0  0  0  0  0  0  0  0  0  0  0  0
    0.0000    0.0000    0.0000 H   0  0  0  0  0  0  0  0  0  0  0  0
    0.0000    0.0000    0.0000 H   0  0  0  0  0  0  0  0  0  0  0  0
    0.0000    0.0000    0.0000 H   0  0  0  0  0  0  0  0  0  0  0  0
    0.0000    0.0000    0.0000 H   0  0  0  0  0  0  0  0  0  0  0  0
    0.0000    0.0000    0.0000 H   0  0  0  0  0  0  0  0  0  0  0  0
    0.0000    0.0000    0.0000 H   0  0  0  0  0  0  0  0  0  0  0  0
    0.0000    0.0000    0.0000 H   0  0  0  0  0  0  0  0  0  0  0  0
    0.0000    0.0000    0.0000 H   0  0  0  0  0  0  0  0  0  0  0  0
    0.0000    0.0000    0.0000 H   0  0  0  0  0  0  0  0  0  0  0  0
  1  6  2  0
  1  2  1  0
  2  3  2  0
  3  4  1  0
  4  5  2  0
  5  6  1  0
  4  7  1  0
  7 12  1  0
  7  8  2  0
  8  9  1  0
  9 10  2  0
 10 11  1  0
 11 12  2  0
 12 13  1  0
  1 14  1  0
  2 15  1  0
  3 16  1  0
  5 17  1  0
  6 18  1  0
  8 19  1  0
  9 20  1  0
 10 21  1  0
 11 22  1  0
M  END
>  <partial_charges>  (331) 
-0.125400006771
-0.131899997592
-0.107900001109
-0.048599999398
-0.107900001109
-0.131899997592
-0.0362000018358
-0.109200000763
-0.131500005722
-0.120899997652
-0.127900004387
0.0295000001788
-0.0864000022411
0.130099996924
0.132899999619
0.138199999928
0.138199999928
0.132899999619
0.143500000238
0.136600002646
0.136199995875
0.147699996829

>  <partial_bond_orders>  (331) 
2.0
1.0
2.0
1.0
2.0
1.0
1.0
2.0
1.0
2.0
1.0
2.0
1.0
1.0
1.0
1.0
1.0
1.0
1.0
1.0
1.0
1.0
1.0

>  <atom_types>  (331) 
ca
ca
ca
cp
ca
ca
cp
ca
ca
ca
ca
ca
cl
ha
ha
ha
ha
ha
ha
ha
ha
ha

>  <target>  (331) 
-2.69

>  <cal>  (331) 
-2.508

$$$$
mobley_7066554
     RDKit          3D

 13 13  0  0  0  0  0  0  0  0999 V2000
    1.8850   -1.0360   -0.1120 C   0  0  0  0  0  0  0  0  0  0  0  0
    2.9210   -1.6310    0.6080 C   0  0  0  0  0  0  0  0  0  0  0  0
    2.8780   -1.6520    2.0020 C   0  0  0  0  0  0  0  0  0  0  0  0
    1.8000   -1.0790    2.6760 C   0  0  0  0  0  0  0  0  0  0  0  0
    0.7640   -0.4840    1.9550 C   0  0  0  0  0  0  0  0  0  0  0  0
    0.8070   -0.4630    0.5610 C   0  0  0  0  0  0  0  0  0  0  0  0
   -0.2040    0.1170   -0.1420 O   0  0  0  0  0  0  0  0  0  0  0  0
    4.1570   -2.3840    2.8910 Cl  0  0  0  0  0  0  0  0  0  0  0  0
    0.0000    0.0000    0.0000 H   0  0  0  0  0  0  0  0  0  0  0  0
    0.0000    0.0000    0.0000 H   0  0  0  0  0  0  0  0  0  0  0  0
    0.0000    0.0000    0.0000 H   0  0  0  0  0  0  0  0  0  0  0  0
    0.0000    0.0000    0.0000 H   0  0  0  0  0  0  0  0  0  0  0  0
    0.0000    0.0000    0.0000 H   0  0  0  0  0  0  0  0  0  0  0  0
  1  6  2  0
  1  2  1  0
  2  3  2  0
  3  4  1  0
  4  5  2  0
  5  6  1  0
  6  7  1  0
  3  8  1  0
  1  9  1  0
  2 10  1  0
  4 11  1  0
  5 12  1  0
  7 13  1  0
M  END
>  <partial_charges>  (332) 
-0.178399994969
-0.0873999968171
-0.0197999998927
-0.0873999968171
-0.178399994969
0.126200005412
-0.493600010872
-0.0948999971151
0.146699994802
0.149299994111
0.149299994111
0.146699994802
0.421499997377

>  <partial_bond_orders>  (332) 
2.0
1.0
2.0
1.0
2.0
1.0
1.0
1.0
1.0
1.0
1.0
1.0
1.0

>  <atom_types>  (332) 
ca
ca
ca
ca
ca
ca
oh
cl
ha
ha
ha
ha
ho

>  <target>  (332) 
-7.03

>  <cal>  (332) 
-5.373

$$$$
mobley_6812653
     RDKit          3D

 20 19  0  0  0  0  0  0  0  0999 V2000
   -0.7500   -0.7230   -0.3380 C   0  0  0  0  0  0  0  0  0  0  0  0
   -0.8330   -0.7250   -1.8560 C   0  0  0  0  0  0  0  0  0  0  0  0
   -1.8740   -1.7250   -2.3580 C   0  0  0  0  0  0  0  0  0  0  0  0
   -1.9540   -1.7250   -3.8850 C   0  0  0  0  0  0  0  0  0  0  0  0
   -2.9950   -2.7250   -4.3870 C   0  0  0  0  0  0  0  0  0  0  0  0
   -3.0780   -2.7280   -5.9050 C   0  0  0  0  0  0  0  0  0  0  0  0
    0.0000    0.0000    0.0000 H   0  0  0  0  0  0  0  0  0  0  0  0
    0.0000    0.0000    0.0000 H   0  0  0  0  0  0  0  0  0  0  0  0
    0.0000    0.0000    0.0000 H   0  0  0  0  0  0  0  0  0  0  0  0
    0.0000    0.0000    0.0000 H   0  0  0  0  0  0  0  0  0  0  0  0
    0.0000    0.0000    0.0000 H   0  0  0  0  0  0  0  0  0  0  0  0
    0.0000    0.0000    0.0000 H   0  0  0  0  0  0  0  0  0  0  0  0
    0.0000    0.0000    0.0000 H   0  0  0  0  0  0  0  0  0  0  0  0
    0.0000    0.0000    0.0000 H   0  0  0  0  0  0  0  0  0  0  0  0
    0.0000    0.0000    0.0000 H   0  0  0  0  0  0  0  0  0  0  0  0
    0.0000    0.0000    0.0000 H   0  0  0  0  0  0  0  0  0  0  0  0
    0.0000    0.0000    0.0000 H   0  0  0  0  0  0  0  0  0  0  0  0
    0.0000    0.0000    0.0000 H   0  0  0  0  0  0  0  0  0  0  0  0
    0.0000    0.0000    0.0000 H   0  0  0  0  0  0  0  0  0  0  0  0
    0.0000    0.0000    0.0000 H   0  0  0  0  0  0  0  0  0  0  0  0
  1  2  1  0
  2  3  1  0
  3  4  1  0
  4  5  1  0
  5  6  1  0
  1  7  1  0
  1  8  1  0
  1  9  1  0
  2 10  1  0
  2 11  1  0
  3 12  1  0
  3 13  1  0
  4 14  1  0
  4 15  1  0
  5 16  1  0
  5 17  1  0
  6 18  1  0
  6 19  1  0
  6 20  1  0
M  END
>  <partial_charges>  (333) 
-0.0923999994993
-0.0794999971986
-0.0786999985576
-0.0786999985576
-0.0794999971986
-0.0923999994993
0.0324000008404
0.0324000008404
0.0324000008404
0.0381000004709
0.0381000004709
0.0386999994516
0.0386999994516
0.0386999994516
0.0386999994516
0.0381000004709
0.0381000004709
0.0324000008404
0.0324000008404
0.0324000008404

>  <partial_bond_orders>  (333) 
1.0
1.0
1.0
1.0
1.0
1.0
1.0
1.0
1.0
1.0
1.0
1.0
1.0
1.0
1.0
1.0
1.0
1.0
1.0

>  <atom_types>  (333) 
c3
c3
c3
c3
c3
c3
hc
hc
hc
hc
hc
hc
hc
hc
hc
hc
hc
hc
hc
hc

>  <target>  (333) 
2.48

>  <cal>  (333) 
2.851

$$$$
mobley_1328465
     RDKit          3D

  8  7  0  0  0  0  0  0  0  0999 V2000
   -0.3310   -0.6040   -0.4080 C   0  0  0  0  0  0  0  0  0  0  0  0
    0.3460    0.6530    0.1310 C   0  0  0  0  0  0  0  0  0  0  0  0
    1.7970    0.2660    1.0890 Cl  0  0  0  0  0  0  0  0  0  0  0  0
   -0.7750    1.6520    1.0890 Cl  0  0  0  0  0  0  0  0  0  0  0  0
   -0.8690   -1.7290    0.8670 Cl  0  0  0  0  0  0  0  0  0  0  0  0
    0.0000    0.0000    0.0000 H   0  0  0  0  0  0  0  0  0  0  0  0
    0.0000    0.0000    0.0000 H   0  0  0  0  0  0  0  0  0  0  0  0
    0.0000    0.0000    0.0000 H   0  0  0  0  0  0  0  0  0  0  0  0
  1  2  1  0
  2  3  1  0
  2  4  1  0
  1  5  1  0
  1  6  1  0
  1  7  1  0
  2  8  1  0
M  END
>  <partial_charges>  (334) 
0.00949999969453
0.13330000639
-0.134900003672
-0.134900003672
-0.144899994135
0.0860000029206
0.0860000029206
0.0998999997973

>  <partial_bond_orders>  (334) 
1.0
1.0
1.0
1.0
1.0
1.0
1.0

>  <atom_types>  (334) 
c3
c3
cl
cl
cl
h1
h1
h2

>  <target>  (334) 
-1.99

>  <cal>  (334) 
-0.384

$$$$
mobley_3761215
     RDKit          3D

  8  7  0  0  0  0  0  0  0  0999 V2000
    1.0240    0.2810   -0.2700 C   0  0  0  0  0  0  0  0  0  0  0  0
    1.2870    1.7560    0.0010 C   0  0  0  0  0  0  0  0  0  0  0  0
    0.1600    2.7550   -0.9570 Cl  0  0  0  0  0  0  0  0  0  0  0  0
    1.0480    2.1020    1.7370 Cl  0  0  0  0  0  0  0  0  0  0  0  0
    2.9650    2.1640   -0.4530 Cl  0  0  0  0  0  0  0  0  0  0  0  0
    0.0000    0.0000    0.0000 H   0  0  0  0  0  0  0  0  0  0  0  0
    0.0000    0.0000    0.0000 H   0  0  0  0  0  0  0  0  0  0  0  0
    0.0000    0.0000    0.0000 H   0  0  0  0  0  0  0  0  0  0  0  0
  1  2  1  0
  2  3  1  0
  2  4  1  0
  2  5  1  0
  1  6  1  0
  1  7  1  0
  1  8  1  0
M  END
>  <partial_charges>  (335) 
-0.111900001764
0.263900011778
-0.123599998653
-0.123599998653
-0.123599998653
0.0729999989271
0.0729999989271
0.0729999989271

>  <partial_bond_orders>  (335) 
1.0
1.0
1.0
1.0
1.0
1.0
1.0

>  <atom_types>  (335) 
c3
c3
cl
cl
cl
hc
hc
hc

>  <target>  (335) 
-0.19

>  <cal>  (335) 
0.505

$$$$
mobley_5003962
     RDKit          3D

 26 28  0  0  0  0  0  0  0  0999 V2000
    1.2900   -1.6870   -0.3520 C   0  0  0  0  0  0  0  0  0  0  0  0
    0.9560   -0.4630    0.2260 C   0  0  0  0  0  0  0  0  0  0  0  0
    1.8480    0.1680    1.0930 C   0  0  0  0  0  0  0  0  0  0  0  0
    3.0810   -0.4280    1.3840 C   0  0  0  0  0  0  0  0  0  0  0  0
    3.4160   -1.6540    0.8060 C   0  0  0  0  0  0  0  0  0  0  0  0
    2.5180   -2.2840   -0.0640 C   0  0  0  0  0  0  0  0  0  0  0  0
    4.7130   -2.2940    1.1040 C   0  0  0  0  0  0  0  0  0  0  0  0
    5.0070   -3.3690    0.5970 O   0  0  0  0  0  0  0  0  0  0  0  0
    5.6520   -1.6180    2.0240 C   0  0  0  0  0  0  0  0  0  0  0  0
    6.8850   -2.2140    2.3150 C   0  0  0  0  0  0  0  0  0  0  0  0
    7.7770   -1.5830    3.1820 C   0  0  0  0  0  0  0  0  0  0  0  0
    7.4420   -0.3590    3.7590 C   0  0  0  0  0  0  0  0  0  0  0  0
    6.2150    0.2380    3.4720 C   0  0  0  0  0  0  0  0  0  0  0  0
    5.3170   -0.3920    2.6020 C   0  0  0  0  0  0  0  0  0  0  0  0
    4.0190    0.2480    2.3040 C   0  0  0  0  0  0  0  0  0  0  0  0
    3.7250    1.3230    2.8100 O   0  0  0  0  0  0  0  0  0  0  0  0
    8.3470    0.2760    4.6360 N   0  0  0  0  0  0  0  0  0  0  0  0
    0.0000    0.0000    0.0000 H   0  0  0  0  0  0  0  0  0  0  0  0
    0.0000    0.0000    0.0000 H   0  0  0  0  0  0  0  0  0  0  0  0
    0.0000    0.0000    0.0000 H   0  0  0  0  0  0  0  0  0  0  0  0
    0.0000    0.0000    0.0000 H   0  0  0  0  0  0  0  0  0  0  0  0
    0.0000    0.0000    0.0000 H   0  0  0  0  0  0  0  0  0  0  0  0
    0.0000    0.0000    0.0000 H   0  0  0  0  0  0  0  0  0  0  0  0
    0.0000    0.0000    0.0000 H   0  0  0  0  0  0  0  0  0  0  0  0
    0.0000    0.0000    0.0000 H   0  0  0  0  0  0  0  0  0  0  0  0
    0.0000    0.0000    0.0000 H   0  0  0  0  0  0  0  0  0  0  0  0
  1  6  2  0
  1  2  1  0
  2  3  2  0
  3  4  1  0
  4 15  1  0
  4  5  2  0
  5  6  1  0
  5  7  1  0
  7  8  2  0
  7  9  1  0
  9 14  2  0
  9 10  1  0
 10 11  2  0
 11 12  1  0
 12 13  2  0
 13 14  1  0
 14 15  1  0
 15 16  2  0
 12 17  1  0
  1 18  1  0
  2 19  1  0
  3 20  1  0
  6 21  1  0
 10 22  1  0
 11 23  1  0
 13 24  1  0
 17 25  1  0
 17 26  1  0
M  END
>  <partial_charges>  (336) 
-0.116499997675
-0.119900003076
-0.0872000008821
-0.129899993539
-0.123400002718
-0.089699998498
0.592199981213
-0.536800026894
-0.186900004745
-0.0395000018179
-0.198799997568
0.182799994946
-0.162599995732
-0.0794000029564
0.584100008011
-0.527400016785
-0.840699970722
0.141000002623
0.140699997544
0.158899992704
0.159700006247
0.158399999142
0.139799997211
0.158199995756
0.411500006914
0.411500006914

>  <partial_bond_orders>  (336) 
2.0
1.0
2.0
1.0
1.0
2.0
1.0
1.0
2.0
1.0
2.0
1.0
2.0
1.0
2.0
1.0
1.0
2.0
1.0
1.0
1.0
1.0
1.0
1.0
1.0
1.0
1.0
1.0

>  <atom_types>  (336) 
ca
ca
ca
ca
ca
ca
c
o
ca
ca
ca
ca
ca
ca
c
o
nh
ha
ha
ha
ha
ha
ha
ha
hn
hn

>  <target>  (336) 
-11.53

>  <cal>  (336) 
-13.895

$$$$
mobley_3169935
     RDKit          3D

 14 14  0  0  0  0  0  0  0  0999 V2000
    1.8850   -1.0360   -0.1120 C   0  0  0  0  0  0  0  0  0  0  0  0
    2.9210   -1.6310    0.6080 C   0  0  0  0  0  0  0  0  0  0  0  0
    2.8780   -1.6520    2.0020 C   0  0  0  0  0  0  0  0  0  0  0  0
    1.8000   -1.0790    2.6760 C   0  0  0  0  0  0  0  0  0  0  0  0
    0.7640   -0.4840    1.9550 C   0  0  0  0  0  0  0  0  0  0  0  0
    0.8070   -0.4630    0.5610 C   0  0  0  0  0  0  0  0  0  0  0  0
   -0.3420    0.1050    2.6090 N   0  0  0  0  0  0  0  0  0  0  0  0
    1.7870   -1.1260    4.4020 Cl  0  0  0  0  0  0  0  0  0  0  0  0
    0.0000    0.0000    0.0000 H   0  0  0  0  0  0  0  0  0  0  0  0
    0.0000    0.0000    0.0000 H   0  0  0  0  0  0  0  0  0  0  0  0
    0.0000    0.0000    0.0000 H   0  0  0  0  0  0  0  0  0  0  0  0
    0.0000    0.0000    0.0000 H   0  0  0  0  0  0  0  0  0  0  0  0
    0.0000    0.0000    0.0000 H   0  0  0  0  0  0  0  0  0  0  0  0
    0.0000    0.0000    0.0000 H   0  0  0  0  0  0  0  0  0  0  0  0
  1  6  2  0
  1  2  1  0
  2  3  2  0
  3  4  1  0
  4  5  2  0
  5  6  1  0
  5  7  1  0
  4  8  1  0
  1  9  1  0
  2 10  1  0
  3 11  1  0
  6 12  1  0
  7 13  1  0
  7 14  1  0
M  END
>  <partial_charges>  (337) 
-0.0876000002027
-0.170499995351
-0.0830999985337
-0.0505999997258
0.158399999142
-0.190300002694
-0.822399973869
-0.105400003493
0.134100005031
0.135800004005
0.14509999752
0.134800001979
0.4007999897
0.4007999897

>  <partial_bond_orders>  (337) 
2.0
1.0
2.0
1.0
2.0
1.0
1.0
1.0
1.0
1.0
1.0
1.0
1.0
1.0

>  <atom_types>  (337) 
ca
ca
ca
ca
ca
ca
nh
cl
ha
ha
ha
ha
hn
hn

>  <target>  (337) 
-4.91

>  <cal>  (337) 
-4.847

$$$$
mobley_6620221
     RDKit          3D

 31 32  0  0  0  0  0  0  0  0999 V2000
    5.0720   -3.7410   -0.4520 C   0  0  0  0  0  0  0  0  0  0  0  0
    3.7320   -4.0210   -1.1420 C   0  0  0  0  0  0  0  0  0  0  0  0
    2.6860   -4.5830   -0.1500 C   0  0  0  0  0  0  0  0  0  0  0  0
    1.8590   -3.3750    0.0640 C   0  0  0  0  0  0  0  0  0  0  0  0
    0.8320   -3.1650    0.9680 C   0  0  0  0  0  0  0  0  0  0  0  0
    0.1670   -1.9370    0.9400 C   0  0  0  0  0  0  0  0  0  0  0  0
    0.5300   -0.9490    0.0100 C   0  0  0  0  0  0  0  0  0  0  0  0
    1.5630   -1.1770   -0.9010 C   0  0  0  0  0  0  0  0  0  0  0  0
    2.2120   -2.3960   -0.8490 C   0  0  0  0  0  0  0  0  0  0  0  0
    3.2390   -2.7590   -1.6790 O   0  0  0  0  0  0  0  0  0  0  0  0
    1.9130   -0.2260   -1.8020 O   0  0  0  0  0  0  0  0  0  0  0  0
    2.9090    0.6740   -1.3660 C   0  0  0  0  0  0  0  0  0  0  0  0
    3.4340    0.6180   -0.2580 O   0  0  0  0  0  0  0  0  0  0  0  0
    3.1960    1.6030   -2.3450 N   0  0  0  0  0  0  0  0  0  0  0  0
    4.1770    2.6520   -2.1870 C   0  0  0  0  0  0  0  0  0  0  0  0
    3.9420   -4.9730   -2.3210 C   0  0  0  0  0  0  0  0  0  0  0  0
    0.0000    0.0000    0.0000 H   0  0  0  0  0  0  0  0  0  0  0  0
    0.0000    0.0000    0.0000 H   0  0  0  0  0  0  0  0  0  0  0  0
    0.0000    0.0000    0.0000 H   0  0  0  0  0  0  0  0  0  0  0  0
    0.0000    0.0000    0.0000 H   0  0  0  0  0  0  0  0  0  0  0  0
    0.0000    0.0000    0.0000 H   0  0  0  0  0  0  0  0  0  0  0  0
    0.0000    0.0000    0.0000 H   0  0  0  0  0  0  0  0  0  0  0  0
    0.0000    0.0000    0.0000 H   0  0  0  0  0  0  0  0  0  0  0  0
    0.0000    0.0000    0.0000 H   0  0  0  0  0  0  0  0  0  0  0  0
    0.0000    0.0000    0.0000 H   0  0  0  0  0  0  0  0  0  0  0  0
    0.0000    0.0000    0.0000 H   0  0  0  0  0  0  0  0  0  0  0  0
    0.0000    0.0000    0.0000 H   0  0  0  0  0  0  0  0  0  0  0  0
    0.0000    0.0000    0.0000 H   0  0  0  0  0  0  0  0  0  0  0  0
    0.0000    0.0000    0.0000 H   0  0  0  0  0  0  0  0  0  0  0  0
    0.0000    0.0000    0.0000 H   0  0  0  0  0  0  0  0  0  0  0  0
    0.0000    0.0000    0.0000 H   0  0  0  0  0  0  0  0  0  0  0  0
  1  2  1  0
  2 10  1  0
  2  3  1  0
  3  4  1  0
  4  9  2  0
  4  5  1  0
  5  6  2  0
  6  7  1  0
  7  8  2  0
  8  9  1  0
  9 10  1  0
  8 11  1  0
 11 12  1  0
 12 13  2  0
 12 14  1  0
 14 15  1  0
  2 16  1  0
  1 17  1  0
  1 18  1  0
  1 19  1  0
  3 20  1  0
  3 21  1  0
  5 22  1  0
  6 23  1  0
  7 24  1  0
 14 25  1  0
 15 26  1  0
 15 27  1  0
 15 28  1  0
 16 29  1  0
 16 30  1  0
 16 31  1  0
M  END
>  <partial_charges>  (338) 
-0.101300001144
0.142299994826
-0.0441999994218
-0.151600003242
-0.0785999968648
-0.159600004554
-0.0901999995112
0.0873000025749
0.125499993563
-0.303700000048
-0.356999993324
0.741500020027
-0.566100001335
-0.55940002203
0.0961000025272
-0.101300001144
0.0491999983788
0.0491999983788
0.0491999983788
0.0672999992967
0.0672999992967
0.136800006032
0.136000007391
0.146799996495
0.331999987364
0.0461999997497
0.0461999997497
0.0461999997497
0.0491999983788
0.0491999983788
0.0491999983788

>  <partial_bond_orders>  (338) 
1.0
1.0
1.0
1.0
2.0
1.0
2.0
1.0
2.0
1.0
1.0
1.0
1.0
2.0
1.0
1.0
1.0
1.0
1.0
1.0
1.0
1.0
1.0
1.0
1.0
1.0
1.0
1.0
1.0
1.0
1.0
1.0

>  <atom_types>  (338) 
c3
c3
c3
ca
ca
ca
ca
ca
ca
os
os
c
o
n
c3
c3
hc
hc
hc
hc
hc
ha
ha
ha
hn
h1
h1
h1
hc
hc
hc

>  <target>  (338) 
-9.61

>  <cal>  (338) 
-11.126

$$$$
mobley_2341732
     RDKit          3D

 20 19  0  0  0  0  0  0  0  0999 V2000
   -0.5100    0.9070    0.3410 C   0  0  0  0  0  0  0  0  0  0  0  0
   -0.5740    0.9570    1.8590 C   0  0  0  0  0  0  0  0  0  0  0  0
    0.8240    0.9590    2.4780 C   0  0  0  0  0  0  0  0  0  0  0  0
    0.7560    1.0090    4.0030 C   0  0  0  0  0  0  0  0  0  0  0  0
    2.1310    1.0110    4.6320 C   0  0  0  0  0  0  0  0  0  0  0  0
    3.1880    0.9770    4.0170 O   0  0  0  0  0  0  0  0  0  0  0  0
    1.9960    1.0550    5.9900 O   0  0  0  0  0  0  0  0  0  0  0  0
    3.2200    1.0610    6.7320 C   0  0  0  0  0  0  0  0  0  0  0  0
    0.0000    0.0000    0.0000 H   0  0  0  0  0  0  0  0  0  0  0  0
    0.0000    0.0000    0.0000 H   0  0  0  0  0  0  0  0  0  0  0  0
    0.0000    0.0000    0.0000 H   0  0  0  0  0  0  0  0  0  0  0  0
    0.0000    0.0000    0.0000 H   0  0  0  0  0  0  0  0  0  0  0  0
    0.0000    0.0000    0.0000 H   0  0  0  0  0  0  0  0  0  0  0  0
    0.0000    0.0000    0.0000 H   0  0  0  0  0  0  0  0  0  0  0  0
    0.0000    0.0000    0.0000 H   0  0  0  0  0  0  0  0  0  0  0  0
    0.0000    0.0000    0.0000 H   0  0  0  0  0  0  0  0  0  0  0  0
    0.0000    0.0000    0.0000 H   0  0  0  0  0  0  0  0  0  0  0  0
    0.0000    0.0000    0.0000 H   0  0  0  0  0  0  0  0  0  0  0  0
    0.0000    0.0000    0.0000 H   0  0  0  0  0  0  0  0  0  0  0  0
    0.0000    0.0000    0.0000 H   0  0  0  0  0  0  0  0  0  0  0  0
  1  2  1  0
  2  3  1  0
  3  4  1  0
  4  5  1  0
  5  6  2  0
  5  7  1  0
  7  8  1  0
  1  9  1  0
  1 10  1  0
  1 11  1  0
  2 12  1  0
  2 13  1  0
  3 14  1  0
  3 15  1  0
  4 16  1  0
  4 17  1  0
  8 18  1  0
  8 19  1  0
  8 20  1  0
M  END
>  <partial_charges>  (339) 
-0.0922000035644
-0.0852999985218
-0.075300000608
-0.127200007439
0.631699979305
-0.542699992657
-0.444900006056
0.12800000608
0.0344999991357
0.0344999991357
0.0344999991357
0.0443999990821
0.0443999990821
0.054999999702
0.054999999702
0.077699996531
0.077699996531
0.0500999987125
0.0500999987125
0.0500999987125

>  <partial_bond_orders>  (339) 
1.0
1.0
1.0
1.0
2.0
1.0
1.0
1.0
1.0
1.0
1.0
1.0
1.0
1.0
1.0
1.0
1.0
1.0
1.0

>  <atom_types>  (339) 
c3
c3
c3
c3
c
o
os
c3
hc
hc
hc
hc
hc
hc
hc
hc
hc
h1
h1
h1

>  <target>  (339) 
-2.56

>  <cal>  (339) 
-3.492

$$$$
mobley_2636578
     RDKit          3D

 17 16  0  0  0  0  0  0  0  0999 V2000
    0.7770   -0.0130   -0.7750 C   0  0  0  0  0  0  0  0  0  0  0  0
    0.3980    0.9310   -1.9040 C   0  0  0  0  0  0  0  0  0  0  0  0
    0.2090    2.2340   -1.3690 O   0  0  0  0  0  0  0  0  0  0  0  0
   -0.1510    3.2040   -2.3470 N   0  0  0  0  0  0  0  0  0  0  0  0
   -0.2580    2.8240   -3.5150 O   0  0  0  0  0  0  0  0  0  0  0  0
   -0.3130    4.3280   -1.8690 O   0  0  0  0  0  0  0  0  0  0  0  0
    0.9970   -1.4330   -1.2700 C   0  0  0  0  0  0  0  0  0  0  0  0
    1.3480   -2.2750   -0.1800 O   0  0  0  0  0  0  0  0  0  0  0  0
    1.5730   -3.6280   -0.5560 N   0  0  0  0  0  0  0  0  0  0  0  0
    1.4440   -3.9190   -1.7480 O   0  0  0  0  0  0  0  0  0  0  0  0
    1.8770   -4.3460    0.3980 O   0  0  0  0  0  0  0  0  0  0  0  0
    0.0000    0.0000    0.0000 H   0  0  0  0  0  0  0  0  0  0  0  0
    0.0000    0.0000    0.0000 H   0  0  0  0  0  0  0  0  0  0  0  0
    0.0000    0.0000    0.0000 H   0  0  0  0  0  0  0  0  0  0  0  0
    0.0000    0.0000    0.0000 H   0  0  0  0  0  0  0  0  0  0  0  0
    0.0000    0.0000    0.0000 H   0  0  0  0  0  0  0  0  0  0  0  0
    0.0000    0.0000    0.0000 H   0  0  0  0  0  0  0  0  0  0  0  0
  1  2  1  0
  2  3  1  0
  3  4  1  0
  4  5  1  0
  4  6  1  0
  1  7  1  0
  7  8  1  0
  8  9  1  0
  9 10  1  0
  9 11  1  0
  1 12  1  0
  1 13  1  0
  2 14  1  0
  2 15  1  0
  7 16  1  0
  7 17  1  0
M  CHG  4   5  -1   6  -1  10  -1  11  -1
M  END
>  <partial_charges>  (340) 
-0.0917999967933
0.130799993873
-0.347799986601
0.37839999795
-0.173099994659
-0.173099994659
0.130799993873
-0.347799986601
0.37839999795
-0.173099994659
-0.173099994659
0.0870999991894
0.0870999991894
0.0718000009656
0.0718000009656
0.0718000009656
0.0718000009656

>  <partial_bond_orders>  (340) 
1.0
1.0
1.0
1.0
1.0
1.0
1.0
1.0
1.0
1.0
1.0
1.0
1.0
1.0
1.0
1.0

>  <atom_types>  (340) 
c3
c3
os
no
o
o
c3
os
no
o
o
hc
hc
h1
h1
h1
h1

>  <target>  (340) 
-4.8

>  <cal>  (340) 
-5.322

$$$$
mobley_6804509
     RDKit          3D

 12 12  0  0  0  0  0  0  0  0999 V2000
    1.8850   -1.0360   -0.1120 C   0  0  0  0  0  0  0  0  0  0  0  0
    2.9210   -1.6310    0.6080 C   0  0  0  0  0  0  0  0  0  0  0  0
    2.8780   -1.6520    2.0020 C   0  0  0  0  0  0  0  0  0  0  0  0
    1.8000   -1.0790    2.6760 C   0  0  0  0  0  0  0  0  0  0  0  0
    0.7640   -0.4840    1.9550 C   0  0  0  0  0  0  0  0  0  0  0  0
    0.8070   -0.4630    0.5610 C   0  0  0  0  0  0  0  0  0  0  0  0
   -0.4460    0.2590   -0.3870 Cl  0  0  0  0  0  0  0  0  0  0  0  0
   -0.5450    0.2090    2.8470 Cl  0  0  0  0  0  0  0  0  0  0  0  0
    4.1310   -2.3740    2.9500 Cl  0  0  0  0  0  0  0  0  0  0  0  0
    4.2300   -2.3240   -0.2830 Cl  0  0  0  0  0  0  0  0  0  0  0  0
    0.0000    0.0000    0.0000 H   0  0  0  0  0  0  0  0  0  0  0  0
    0.0000    0.0000    0.0000 H   0  0  0  0  0  0  0  0  0  0  0  0
  1  6  2  0
  1  2  1  0
  2  3  2  0
  3  4  1  0
  4  5  2  0
  5  6  1  0
  6  7  1  0
  5  8  1  0
  3  9  1  0
  2 10  1  0
  1 11  1  0
  4 12  1  0
M  END
>  <partial_charges>  (341) 
-0.108099997044
0.0223999992013
0.0223999992013
-0.108000002801
0.0223999992013
0.0223999992013
-0.0533000007272
-0.0533000007272
-0.0533000007272
-0.0533000007272
0.169799998403
0.169799998403

>  <partial_bond_orders>  (341) 
2.0
1.0
2.0
1.0
2.0
1.0
1.0
1.0
1.0
1.0
1.0
1.0

>  <atom_types>  (341) 
ca
ca
ca
ca
ca
ca
cl
cl
cl
cl
ha
ha

>  <target>  (341) 
-1.34

>  <cal>  (341) 
0.035

$$$$
mobley_7176290
     RDKit          3D

 15 15  0  0  0  0  0  0  0  0999 V2000
    1.8850   -1.0360   -0.1120 C   0  0  0  0  0  0  0  0  0  0  0  0
    2.9210   -1.6310    0.6080 C   0  0  0  0  0  0  0  0  0  0  0  0
    2.8780   -1.6520    2.0020 C   0  0  0  0  0  0  0  0  0  0  0  0
    1.8000   -1.0790    2.6760 C   0  0  0  0  0  0  0  0  0  0  0  0
    0.7640   -0.4840    1.9550 C   0  0  0  0  0  0  0  0  0  0  0  0
    0.8070   -0.4630    0.5610 C   0  0  0  0  0  0  0  0  0  0  0  0
   -0.2890    0.0750    2.6110 O   0  0  0  0  0  0  0  0  0  0  0  0
    3.9330   -2.2570    2.7360 N   0  0  0  0  0  0  0  0  0  0  0  0
    3.8750   -2.2660    3.9890 O   0  0  0  0  0  0  0  0  0  0  0  0
    4.8940   -2.7670    2.1110 O   0  0  0  0  0  0  0  0  0  0  0  0
    0.0000    0.0000    0.0000 H   0  0  0  0  0  0  0  0  0  0  0  0
    0.0000    0.0000    0.0000 H   0  0  0  0  0  0  0  0  0  0  0  0
    0.0000    0.0000    0.0000 H   0  0  0  0  0  0  0  0  0  0  0  0
    0.0000    0.0000    0.0000 H   0  0  0  0  0  0  0  0  0  0  0  0
    0.0000    0.0000    0.0000 H   0  0  0  0  0  0  0  0  0  0  0  0
  1  6  2  0
  1  2  1  0
  2  3  2  0
  3  4  1  0
  4  5  2  0
  5  6  1  0
  5  7  1  0
  3  8  1  0
  8  9  1  0
  8 10  1  0
  1 11  1  0
  2 12  1  0
  4 13  1  0
  6 14  1  0
  7 15  1  0
M  CHG  2   9  -1  10  -1
M  END
>  <partial_charges>  (342) 
-0.100100003183
-0.105899997056
-0.141000002623
-0.0976999998093
0.118799999356
-0.175300002098
-0.485700011253
0.311500012875
-0.203700006008
-0.203700006008
0.149599999189
0.174300000072
0.187299996614
0.144999995828
0.426499992609

>  <partial_bond_orders>  (342) 
2.0
1.0
2.0
1.0
2.0
1.0
1.0
1.0
1.0
1.0
1.0
1.0
1.0
1.0
1.0

>  <atom_types>  (342) 
ca
ca
ca
ca
ca
ca
oh
no
o
o
ha
ha
ha
ha
ho

>  <target>  (342) 
-9.62

>  <cal>  (342) 
-7.889

$$$$
mobley_5880265
     RDKit          3D

 22 21  0  0  0  0  0  0  0  0999 V2000
    0.3900   -1.0210   -0.0850 C   0  0  0  0  0  0  0  0  0  0  0  0
   -0.5800   -2.0240    0.5200 C   0  0  0  0  0  0  0  0  0  0  0  0
   -1.9310   -1.9920   -0.1890 C   0  0  0  0  0  0  0  0  0  0  0  0
   -2.9050   -2.9950    0.4140 C   0  0  0  0  0  0  0  0  0  0  0  0
   -4.1380   -2.9160   -0.2880 O   0  0  0  0  0  0  0  0  0  0  0  0
   -5.0930   -3.8320    0.2300 C   0  0  0  0  0  0  0  0  0  0  0  0
   -6.3830   -3.7010   -0.5570 C   0  0  0  0  0  0  0  0  0  0  0  0
   -6.8710   -2.3700   -0.4300 O   0  0  0  0  0  0  0  0  0  0  0  0
    0.0000    0.0000    0.0000 H   0  0  0  0  0  0  0  0  0  0  0  0
    0.0000    0.0000    0.0000 H   0  0  0  0  0  0  0  0  0  0  0  0
    0.0000    0.0000    0.0000 H   0  0  0  0  0  0  0  0  0  0  0  0
    0.0000    0.0000    0.0000 H   0  0  0  0  0  0  0  0  0  0  0  0
    0.0000    0.0000    0.0000 H   0  0  0  0  0  0  0  0  0  0  0  0
    0.0000    0.0000    0.0000 H   0  0  0  0  0  0  0  0  0  0  0  0
    0.0000    0.0000    0.0000 H   0  0  0  0  0  0  0  0  0  0  0  0
    0.0000    0.0000    0.0000 H   0  0  0  0  0  0  0  0  0  0  0  0
    0.0000    0.0000    0.0000 H   0  0  0  0  0  0  0  0  0  0  0  0
    0.0000    0.0000    0.0000 H   0  0  0  0  0  0  0  0  0  0  0  0
    0.0000    0.0000    0.0000 H   0  0  0  0  0  0  0  0  0  0  0  0
    0.0000    0.0000    0.0000 H   0  0  0  0  0  0  0  0  0  0  0  0
    0.0000    0.0000    0.0000 H   0  0  0  0  0  0  0  0  0  0  0  0
    0.0000    0.0000    0.0000 H   0  0  0  0  0  0  0  0  0  0  0  0
  1  2  1  0
  2  3  1  0
  3  4  1  0
  4  5  1  0
  5  6  1  0
  6  7  1  0
  7  8  1  0
  1  9  1  0
  1 10  1  0
  1 11  1  0
  2 12  1  0
  2 13  1  0
  3 14  1  0
  3 15  1  0
  4 16  1  0
  4 17  1  0
  6 18  1  0
  6 19  1  0
  7 20  1  0
  7 21  1  0
  8 22  1  0
M  END
>  <partial_charges>  (343) 
-0.091899998486
-0.0800999999046
-0.0803000032902
0.129299998283
-0.417600005865
0.0907000005245
0.125300005078
-0.59350001812
0.0326000005007
0.0326000005007
0.0326000005007
0.0461999997497
0.0461999997497
0.048900000751
0.048900000751
0.0281000006944
0.0281000006944
0.0299999993294
0.0299999993294
0.0590000003576
0.0590000003576
0.396299988031

>  <partial_bond_orders>  (343) 
1.0
1.0
1.0
1.0
1.0
1.0
1.0
1.0
1.0
1.0
1.0
1.0
1.0
1.0
1.0
1.0
1.0
1.0
1.0
1.0
1.0

>  <atom_types>  (343) 
c3
c3
c3
c3
os
c3
c3
oh
hc
hc
hc
hc
hc
hc
hc
h1
h1
h1
h1
h1
h1
ho

>  <target>  (343) 
-6.25

>  <cal>  (343) 
-3.85

$$$$
mobley_9883303
     RDKit          3D

 23 22  0  0  1  0  0  0  0  0999 V2000
    0.0170    0.6230   -0.8540 C   0  0  0  0  0  0  0  0  0  0  0  0
    0.5360   -0.1290   -2.0710 C   0  0  0  0  0  0  0  0  0  0  0  0
    1.9780   -0.5960   -1.8600 C   0  0  0  0  0  0  0  0  0  0  0  0
    2.5980   -1.3720   -3.0420 C   0  0  0  0  0  0  0  0  0  0  0  0
    2.7130   -0.4920   -4.2910 C   0  0  0  0  0  0  0  0  0  0  0  0
    1.8670   -2.6770   -3.4090 C   0  0  0  0  0  0  0  0  0  0  0  0
    1.8190   -3.6910   -2.2760 C   0  0  0  0  0  0  0  0  0  0  0  0
    0.0000    0.0000    0.0000 H   0  0  0  0  0  0  0  0  0  0  0  0
    0.0000    0.0000    0.0000 H   0  0  0  0  0  0  0  0  0  0  0  0
    0.0000    0.0000    0.0000 H   0  0  0  0  0  0  0  0  0  0  0  0
    0.0000    0.0000    0.0000 H   0  0  0  0  0  0  0  0  0  0  0  0
    0.0000    0.0000    0.0000 H   0  0  0  0  0  0  0  0  0  0  0  0
    0.0000    0.0000    0.0000 H   0  0  0  0  0  0  0  0  0  0  0  0
    0.0000    0.0000    0.0000 H   0  0  0  0  0  0  0  0  0  0  0  0
    0.0000    0.0000    0.0000 H   0  0  0  0  0  0  0  0  0  0  0  0
    0.0000    0.0000    0.0000 H   0  0  0  0  0  0  0  0  0  0  0  0
    0.0000    0.0000    0.0000 H   0  0  0  0  0  0  0  0  0  0  0  0
    0.0000    0.0000    0.0000 H   0  0  0  0  0  0  0  0  0  0  0  0
    0.0000    0.0000    0.0000 H   0  0  0  0  0  0  0  0  0  0  0  0
    0.0000    0.0000    0.0000 H   0  0  0  0  0  0  0  0  0  0  0  0
    0.0000    0.0000    0.0000 H   0  0  0  0  0  0  0  0  0  0  0  0
    0.0000    0.0000    0.0000 H   0  0  0  0  0  0  0  0  0  0  0  0
    0.0000    0.0000    0.0000 H   0  0  0  0  0  0  0  0  0  0  0  0
  1  2  1  0
  2  3  1  0
  3  4  1  0
  4  5  1  0
  4  6  1  0
  6  7  1  0
  1  8  1  0
  1  9  1  0
  1 10  1  0
  2 11  1  0
  2 12  1  0
  3 13  1  0
  3 14  1  0
  4 15  1  0
  5 16  1  0
  5 17  1  0
  5 18  1  0
  6 19  1  0
  6 20  1  0
  7 21  1  0
  7 22  1  0
  7 23  1  0
M  END
>  <partial_charges>  (344) 
-0.0921000018716
-0.0802000015974
-0.0732000023127
-0.0630000010133
0.043299999088
-0.0908999964595
-0.0768000036478
-0.0926999971271
0.0320999994874
0.0320999994874
0.0320999994874
0.0395999997854
0.0395999997854
0.0377000011504
0.0377000011504
0.0329999998212
0.0329999998212
0.0329999998212
0.0388000011444
0.0388000011444
0.0326000005007
0.0326000005007
0.0326000005007

>  <partial_bond_orders>  (344) 
1.0
1.0
1.0
1.0
1.0
1.0
1.0
1.0
1.0
1.0
1.0
1.0
1.0
1.0
1.0
1.0
1.0
1.0
1.0
1.0
1.0
1.0

>  <atom_types>  (344) 
c3
c3
c3
c3
hc
c3
c3
c3
hc
hc
hc
hc
hc
hc
hc
hc
hc
hc
hc
hc
hc
hc
hc

>  <target>  (344) 
2.71

>  <cal>  (344) 
2.81

$$$$
mobley_6303022
     RDKit          3D

 17 17  0  0  0  0  0  0  0  0999 V2000
    2.0260    2.3330    1.4330 C   0  0  0  0  0  0  0  0  0  0  0  0
    2.3470    0.8980    1.0440 C   0  0  0  0  0  0  0  0  0  0  0  0
    1.3880   -0.0680    1.6520 C   0  0  0  0  0  0  0  0  0  0  0  0
    0.2270   -0.4200    0.9730 C   0  0  0  0  0  0  0  0  0  0  0  0
   -0.6320   -1.3220    1.5800 C   0  0  0  0  0  0  0  0  0  0  0  0
   -0.4090   -1.8820    2.7910 N   0  0  0  0  0  0  0  0  0  0  0  0
    0.7300   -1.5160    3.4210 C   0  0  0  0  0  0  0  0  0  0  0  0
    1.6520   -0.6230    2.9000 C   0  0  0  0  0  0  0  0  0  0  0  0
    0.0000    0.0000    0.0000 H   0  0  0  0  0  0  0  0  0  0  0  0
    0.0000    0.0000    0.0000 H   0  0  0  0  0  0  0  0  0  0  0  0
    0.0000    0.0000    0.0000 H   0  0  0  0  0  0  0  0  0  0  0  0
    0.0000    0.0000    0.0000 H   0  0  0  0  0  0  0  0  0  0  0  0
    0.0000    0.0000    0.0000 H   0  0  0  0  0  0  0  0  0  0  0  0
    0.0000    0.0000    0.0000 H   0  0  0  0  0  0  0  0  0  0  0  0
    0.0000    0.0000    0.0000 H   0  0  0  0  0  0  0  0  0  0  0  0
    0.0000    0.0000    0.0000 H   0  0  0  0  0  0  0  0  0  0  0  0
    0.0000    0.0000    0.0000 H   0  0  0  0  0  0  0  0  0  0  0  0
  1  2  1  0
  2  3  1  0
  3  8  2  0
  3  4  1  0
  4  5  2  0
  5  6  1  0
  6  7  2  0
  7  8  1  0
  1  9  1  0
  1 10  1  0
  1 11  1  0
  2 12  1  0
  2 13  1  0
  4 14  1  0
  5 15  1  0
  7 16  1  0
  8 17  1  0
M  END
>  <partial_charges>  (345) 
-0.0895999968052
-0.0463000014424
-0.0388000011444
-0.245800003409
0.39509999752
-0.669099986553
0.39509999752
-0.245800003409
0.0386000014842
0.0386000014842
0.0386000014842
0.0507000014186
0.0507000014186
0.14319999516
0.0208000000566
0.0208000000566
0.14319999516

>  <partial_bond_orders>  (345) 
1.0
1.0
2.0
1.0
2.0
1.0
2.0
1.0
1.0
1.0
1.0
1.0
1.0
1.0
1.0
1.0
1.0

>  <atom_types>  (345) 
c3
c3
ca
ca
ca
nb
ca
ca
hc
hc
hc
hc
hc
ha
h4
h4
ha

>  <target>  (345) 
-4.73

>  <cal>  (345) 
-3.19

$$$$
mobley_7039935
     RDKit          3D

 19 20  0  0  0  0  0  0  0  0999 V2000
   -0.4970   -2.0340    0.4940 C   0  0  0  0  0  0  0  0  0  0  0  0
    0.3500   -1.0280    0.0390 C   0  0  0  0  0  0  0  0  0  0  0  0
    1.6480   -1.3370   -0.3660 C   0  0  0  0  0  0  0  0  0  0  0  0
    2.1170   -2.6600   -0.3220 C   0  0  0  0  0  0  0  0  0  0  0  0
    1.2560   -3.6840    0.1400 C   0  0  0  0  0  0  0  0  0  0  0  0
   -0.0480   -3.3540    0.5450 C   0  0  0  0  0  0  0  0  0  0  0  0
    1.7240   -5.0070    0.1850 C   0  0  0  0  0  0  0  0  0  0  0  0
    3.0230   -5.3170   -0.2210 C   0  0  0  0  0  0  0  0  0  0  0  0
    3.8690   -4.3100   -0.6760 C   0  0  0  0  0  0  0  0  0  0  0  0
    3.4210   -2.9900   -0.7270 C   0  0  0  0  0  0  0  0  0  0  0  0
    4.2870   -2.0360   -1.1800 O   0  0  0  0  0  0  0  0  0  0  0  0
    0.0000    0.0000    0.0000 H   0  0  0  0  0  0  0  0  0  0  0  0
    0.0000    0.0000    0.0000 H   0  0  0  0  0  0  0  0  0  0  0  0
    0.0000    0.0000    0.0000 H   0  0  0  0  0  0  0  0  0  0  0  0
    0.0000    0.0000    0.0000 H   0  0  0  0  0  0  0  0  0  0  0  0
    0.0000    0.0000    0.0000 H   0  0  0  0  0  0  0  0  0  0  0  0
    0.0000    0.0000    0.0000 H   0  0  0  0  0  0  0  0  0  0  0  0
    0.0000    0.0000    0.0000 H   0  0  0  0  0  0  0  0  0  0  0  0
    0.0000    0.0000    0.0000 H   0  0  0  0  0  0  0  0  0  0  0  0
  1  6  2  0
  1  2  1  0
  2  3  2  0
  3  4  1  0
  4 10  1  0
  4  5  2  0
  5  6  1  0
  5  7  1  0
  7  8  2  0
  8  9  1  0
  9 10  2  0
 10 11  1  0
  1 12  1  0
  2 13  1  0
  3 14  1  0
  6 15  1  0
  7 16  1  0
  8 17  1  0
  9 18  1  0
 11 19  1  0
M  END
>  <partial_charges>  (346) 
-0.114500001073
-0.142000004649
-0.0913000032306
-0.0540999993682
-0.00980000011623
-0.13030000031
-0.153300002217
-0.0886999964714
-0.230299994349
0.143299996853
-0.498600006104
0.132400006056
0.133499994874
0.148599997163
0.133100003004
0.134599998593
0.132499992847
0.13369999826
0.421400010586

>  <partial_bond_orders>  (346) 
2.0
1.0
2.0
1.0
2.0
1.0
1.0
2.0
1.0
2.0
1.0
1.0
1.0
1.0
1.0
1.0
1.0
1.0
1.0
1.0

>  <atom_types>  (346) 
ca
ca
ca
ca
ca
ca
ca
ca
ca
ca
oh
ha
ha
ha
ha
ha
ha
ha
ho

>  <target>  (346) 
-7.67

>  <cal>  (346) 
-7.137

$$$$
mobley_8739734
     RDKit          3D

 16 15  0  0  0  0  0  0  0  0999 V2000
    1.7490    3.8110    0.3320 C   0  0  0  0  0  0  0  0  0  0  0  0
    0.2940    3.4410    0.5920 C   0  0  0  0  0  0  0  0  0  0  0  0
   -0.6400    4.5640    0.1510 C   0  0  0  0  0  0  0  0  0  0  0  0
   -0.0460    2.1350   -0.1210 C   0  0  0  0  0  0  0  0  0  0  0  0
   -0.4800    2.1060   -1.2730 O   0  0  0  0  0  0  0  0  0  0  0  0
    0.2060    0.8570    0.6390 C   0  0  0  0  0  0  0  0  0  0  0  0
    0.0000    0.0000    0.0000 H   0  0  0  0  0  0  0  0  0  0  0  0
    0.0000    0.0000    0.0000 H   0  0  0  0  0  0  0  0  0  0  0  0
    0.0000    0.0000    0.0000 H   0  0  0  0  0  0  0  0  0  0  0  0
    0.0000    0.0000    0.0000 H   0  0  0  0  0  0  0  0  0  0  0  0
    0.0000    0.0000    0.0000 H   0  0  0  0  0  0  0  0  0  0  0  0
    0.0000    0.0000    0.0000 H   0  0  0  0  0  0  0  0  0  0  0  0
    0.0000    0.0000    0.0000 H   0  0  0  0  0  0  0  0  0  0  0  0
    0.0000    0.0000    0.0000 H   0  0  0  0  0  0  0  0  0  0  0  0
    0.0000    0.0000    0.0000 H   0  0  0  0  0  0  0  0  0  0  0  0
    0.0000    0.0000    0.0000 H   0  0  0  0  0  0  0  0  0  0  0  0
  1  2  1  0
  2  3  1  0
  2  4  1  0
  4  5  2  0
  4  6  1  0
  1  7  1  0
  1  8  1  0
  1  9  1  0
  2 10  1  0
  3 11  1  0
  3 12  1  0
  3 13  1  0
  6 14  1  0
  6 15  1  0
  6 16  1  0
M  END
>  <partial_charges>  (347) 
-0.0863000005484
-0.16400000453
-0.0863000005484
0.566299974918
-0.531300008297
-0.203099995852
0.0428000018001
0.0428000018001
0.0428000018001
0.0581000000238
0.0428000018001
0.0428000018001
0.0428000018001
0.0631999969482
0.0631999969482
0.0631999969482

>  <partial_bond_orders>  (347) 
1.0
1.0
1.0
2.0
1.0
1.0
1.0
1.0
1.0
1.0
1.0
1.0
1.0
1.0
1.0

>  <atom_types>  (347) 
c3
c3
c3
c
o
c3
hc
hc
hc
hc
hc
hc
hc
hc
hc
hc

>  <target>  (347) 
-3.24

>  <cal>  (347) 
-3.078

$$$$
mobley_4845722
     RDKit          3D

 12 12  0  0  0  0  0  0  0  0999 V2000
    1.8850   -1.0360   -0.1120 C   0  0  0  0  0  0  0  0  0  0  0  0
    2.9210   -1.6310    0.6080 C   0  0  0  0  0  0  0  0  0  0  0  0
    2.8780   -1.6520    2.0020 C   0  0  0  0  0  0  0  0  0  0  0  0
    1.8000   -1.0790    2.6760 C   0  0  0  0  0  0  0  0  0  0  0  0
    0.7640   -0.4840    1.9550 C   0  0  0  0  0  0  0  0  0  0  0  0
    0.8070   -0.4630    0.5610 C   0  0  0  0  0  0  0  0  0  0  0  0
   -0.4880    0.2800   -0.3400 Cl  0  0  0  0  0  0  0  0  0  0  0  0
   -0.5850    0.2320    2.7970 Cl  0  0  0  0  0  0  0  0  0  0  0  0
    1.7460   -1.1050    4.4180 Cl  0  0  0  0  0  0  0  0  0  0  0  0
    4.1730   -2.3960    2.9030 Cl  0  0  0  0  0  0  0  0  0  0  0  0
    4.2690   -2.3480   -0.2340 Cl  0  0  0  0  0  0  0  0  0  0  0  0
    1.9390   -1.0100   -1.8550 Cl  0  0  0  0  0  0  0  0  0  0  0  0
  1  6  2  0
  1  2  1  0
  2  3  2  0
  3  4  1  0
  4  5  2  0
  5  6  1  0
  6  7  1  0
  5  8  1  0
  4  9  1  0
  3 10  1  0
  2 11  1  0
  1 12  1  0
M  END
>  <partial_charges>  (348) 
0.0261000003666
0.0262000001967
0.0262000001967
0.0262000001967
0.0262000001967
0.0262000001967
-0.0262000001967
-0.0262000001967
-0.0262000001967
-0.0262000001967
-0.0262000001967
-0.0262000001967

>  <partial_bond_orders>  (348) 
2.0
1.0
2.0
1.0
2.0
1.0
1.0
1.0
1.0
1.0
1.0
1.0

>  <atom_types>  (348) 
ca
ca
ca
ca
ca
ca
cl
cl
cl
cl
cl
cl

>  <target>  (348) 
-2.33

>  <cal>  (348) 
0.379

$$$$
mobley_8492526
     RDKit          3D

 16 15  0  0  0  0  0  0  0  0999 V2000
   -2.2680   -0.0690   -0.2680 C   0  0  0  0  0  0  0  0  0  0  0  0
   -0.8960   -0.2980    0.3450 C   0  0  0  0  0  0  0  0  0  0  0  0
    0.1420    0.6690   -0.2300 C   0  0  0  0  0  0  0  0  0  0  0  0
    1.5300    0.4590    0.3690 C   0  0  0  0  0  0  0  0  0  0  0  0
    2.5820    1.3970   -0.1750 C   0  0  0  0  0  0  0  0  0  0  0  0
    2.3820    2.2620   -1.0210 O   0  0  0  0  0  0  0  0  0  0  0  0
    0.0000    0.0000    0.0000 H   0  0  0  0  0  0  0  0  0  0  0  0
    0.0000    0.0000    0.0000 H   0  0  0  0  0  0  0  0  0  0  0  0
    0.0000    0.0000    0.0000 H   0  0  0  0  0  0  0  0  0  0  0  0
    0.0000    0.0000    0.0000 H   0  0  0  0  0  0  0  0  0  0  0  0
    0.0000    0.0000    0.0000 H   0  0  0  0  0  0  0  0  0  0  0  0
    0.0000    0.0000    0.0000 H   0  0  0  0  0  0  0  0  0  0  0  0
    0.0000    0.0000    0.0000 H   0  0  0  0  0  0  0  0  0  0  0  0
    0.0000    0.0000    0.0000 H   0  0  0  0  0  0  0  0  0  0  0  0
    0.0000    0.0000    0.0000 H   0  0  0  0  0  0  0  0  0  0  0  0
    0.0000    0.0000    0.0000 H   0  0  0  0  0  0  0  0  0  0  0  0
  1  2  1  0
  2  3  1  0
  3  4  1  0
  4  5  1  0
  5  6  2  0
  1  7  1  0
  1  8  1  0
  1  9  1  0
  2 10  1  0
  2 11  1  0
  3 12  1  0
  3 13  1  0
  4 14  1  0
  4 15  1  0
  5 16  1  0
M  END
>  <partial_charges>  (349) 
-0.0923999994993
-0.0797000005841
-0.0755999982357
-0.198400005698
0.563700020313
-0.523599982262
0.035000000149
0.035000000149
0.035000000149
0.0368999987841
0.0368999987841
0.0538000017405
0.0538000017405
0.0654999986291
0.0654999986291
-0.0114000001922

>  <partial_bond_orders>  (349) 
1.0
1.0
1.0
1.0
2.0
1.0
1.0
1.0
1.0
1.0
1.0
1.0
1.0
1.0
1.0

>  <atom_types>  (349) 
c3
c3
c3
c3
c
o
hc
hc
hc
hc
hc
hc
hc
hc
hc
h4

>  <target>  (349) 
-3.03

>  <cal>  (349) 
-2.927

$$$$
mobley_8558116
     RDKit          3D

 18 18  0  0  0  0  0  0  0  0999 V2000
    0.9620   -2.0410   -1.4120 C   0  0  0  0  0  0  0  0  0  0  0  0
    0.2060   -0.8930   -1.9090 N   0  0  0  0  0  0  0  0  0  0  0  0
   -1.2150   -1.2330   -2.0650 C   0  0  0  0  0  0  0  0  0  0  0  0
   -1.9850   -0.0170   -2.5730 C   0  0  0  0  0  0  0  0  0  0  0  0
   -1.8310    1.0800   -1.6720 O   0  0  0  0  0  0  0  0  0  0  0  0
   -0.4560    1.4390   -1.5390 C   0  0  0  0  0  0  0  0  0  0  0  0
    0.3520    0.2580   -1.0070 C   0  0  0  0  0  0  0  0  0  0  0  0
    0.0000    0.0000    0.0000 H   0  0  0  0  0  0  0  0  0  0  0  0
    0.0000    0.0000    0.0000 H   0  0  0  0  0  0  0  0  0  0  0  0
    0.0000    0.0000    0.0000 H   0  0  0  0  0  0  0  0  0  0  0  0
    0.0000    0.0000    0.0000 H   0  0  0  0  0  0  0  0  0  0  0  0
    0.0000    0.0000    0.0000 H   0  0  0  0  0  0  0  0  0  0  0  0
    0.0000    0.0000    0.0000 H   0  0  0  0  0  0  0  0  0  0  0  0
    0.0000    0.0000    0.0000 H   0  0  0  0  0  0  0  0  0  0  0  0
    0.0000    0.0000    0.0000 H   0  0  0  0  0  0  0  0  0  0  0  0
    0.0000    0.0000    0.0000 H   0  0  0  0  0  0  0  0  0  0  0  0
    0.0000    0.0000    0.0000 H   0  0  0  0  0  0  0  0  0  0  0  0
    0.0000    0.0000    0.0000 H   0  0  0  0  0  0  0  0  0  0  0  0
  1  2  1  0
  2  7  1  0
  2  3  1  0
  3  4  1  0
  4  5  1  0
  5  6  1  0
  6  7  1  0
  1  8  1  0
  1  9  1  0
  1 10  1  0
  3 11  1  0
  3 12  1  0
  4 13  1  0
  4 14  1  0
  6 15  1  0
  6 16  1  0
  7 17  1  0
  7 18  1  0
M  END
>  <partial_charges>  (350) 
0.148699998856
-0.712599992752
0.122299998999
0.127200007439
-0.416999995708
0.127200007439
0.122299998999
0.034200001508
0.034200001508
0.034200001508
0.0412999987602
0.0412999987602
0.0535999983549
0.0535999983549
0.0535999983549
0.0535999983549
0.0412999987602
0.0412999987602

>  <partial_bond_orders>  (350) 
1.0
1.0
1.0
1.0
1.0
1.0
1.0
1.0
1.0
1.0
1.0
1.0
1.0
1.0
1.0
1.0
1.0
1.0

>  <atom_types>  (350) 
c3
n3
c3
c3
os
c3
c3
h1
h1
h1
h1
h1
h1
h1
h1
h1
h1
h1

>  <target>  (350) 
-6.32

>  <cal>  (350) 
-5.774

$$$$
mobley_5538249
     RDKit          3D

 22 23  0  0  0  0  0  0  0  0999 V2000
    1.8850   -1.0360   -0.1120 C   0  0  0  0  0  0  0  0  0  0  0  0
    2.9210   -1.6310    0.6080 C   0  0  0  0  0  0  0  0  0  0  0  0
    2.8780   -1.6520    2.0020 C   0  0  0  0  0  0  0  0  0  0  0  0
    1.8000   -1.0790    2.6760 C   0  0  0  0  0  0  0  0  0  0  0  0
    0.7640   -0.4840    1.9550 C   0  0  0  0  0  0  0  0  0  0  0  0
    0.8070   -0.4630    0.5610 C   0  0  0  0  0  0  0  0  0  0  0  0
    1.7550   -1.1010    4.1220 C   0  0  0  0  0  0  0  0  0  0  0  0
    1.1500   -2.1680    4.7840 C   0  0  0  0  0  0  0  0  0  0  0  0
    1.1060   -2.1900    6.1780 C   0  0  0  0  0  0  0  0  0  0  0  0
    1.6680   -1.1430    6.9100 C   0  0  0  0  0  0  0  0  0  0  0  0
    2.2730   -0.0750    6.2470 C   0  0  0  0  0  0  0  0  0  0  0  0
    2.3170   -0.0540    4.8530 C   0  0  0  0  0  0  0  0  0  0  0  0
    3.0820    1.2990    4.0910 Cl  0  0  0  0  0  0  0  0  0  0  0  0
    1.6160   -1.1710    8.6300 Cl  0  0  0  0  0  0  0  0  0  0  0  0
    0.4350   -3.4970    3.9360 Cl  0  0  0  0  0  0  0  0  0  0  0  0
    0.0000    0.0000    0.0000 H   0  0  0  0  0  0  0  0  0  0  0  0
    0.0000    0.0000    0.0000 H   0  0  0  0  0  0  0  0  0  0  0  0
    0.0000    0.0000    0.0000 H   0  0  0  0  0  0  0  0  0  0  0  0
    0.0000    0.0000    0.0000 H   0  0  0  0  0  0  0  0  0  0  0  0
    0.0000    0.0000    0.0000 H   0  0  0  0  0  0  0  0  0  0  0  0
    0.0000    0.0000    0.0000 H   0  0  0  0  0  0  0  0  0  0  0  0
    0.0000    0.0000    0.0000 H   0  0  0  0  0  0  0  0  0  0  0  0
  1  6  2  0
  1  2  1  0
  2  3  2  0
  3  4  1  0
  4  5  2  0
  5  6  1  0
  4  7  1  0
  7 12  1  0
  7  8  2  0
  8  9  1  0
  9 10  2  0
 10 11  1  0
 11 12  2  0
 12 13  1  0
 10 14  1  0
  8 15  1  0
  1 16  1  0
  2 17  1  0
  3 18  1  0
  5 19  1  0
  6 20  1  0
  9 21  1  0
 11 22  1  0
M  END
>  <partial_charges>  (351) 
-0.119499996305
-0.131899997592
-0.0995000004768
-0.055300001055
-0.0995000004768
-0.131899997592
-0.0260000005364
0.0410999991
-0.125900000334
0.0313999988139
-0.125900000334
0.0410999991
-0.0658999979496
-0.0772000029683
-0.0658999979496
0.131899997592
0.134499996901
0.139100000262
0.139100000262
0.134499996901
0.165800005198
0.165800005198

>  <partial_bond_orders>  (351) 
2.0
1.0
2.0
1.0
2.0
1.0
1.0
2.0
1.0
2.0
1.0
2.0
1.0
1.0
1.0
1.0
1.0
1.0
1.0
1.0
1.0
1.0
1.0

>  <atom_types>  (351) 
ca
ca
ca
cp
ca
ca
cp
ca
ca
ca
ca
ca
cl
cl
cl
ha
ha
ha
ha
ha
ha
ha

>  <target>  (351) 
-2.16

>  <cal>  (351) 
-1.151

$$$$
mobley_5467162
     RDKit          3D

 25 25  0  0  0  0  0  0  0  0999 V2000
   -1.0060    0.0250   -0.4340 C   0  0  0  0  0  0  0  0  0  0  0  0
   -2.0900    0.3300    0.6220 C   0  0  0  0  0  0  0  0  0  0  0  0
   -1.7780    1.6830    1.2950 C   0  0  0  0  0  0  0  0  0  0  0  0
   -3.4290    0.4950   -0.1340 C   0  0  0  0  0  0  0  0  0  0  0  0
   -2.1080   -0.7840    1.6810 C   0  0  0  0  0  0  0  0  0  0  0  0
   -3.2650   -1.5350    1.8860 C   0  0  0  0  0  0  0  0  0  0  0  0
   -3.2810   -2.5440    2.8490 C   0  0  0  0  0  0  0  0  0  0  0  0
   -2.1390   -2.8020    3.6070 C   0  0  0  0  0  0  0  0  0  0  0  0
   -0.9820   -2.0510    3.4030 C   0  0  0  0  0  0  0  0  0  0  0  0
   -0.9660   -1.0420    2.4400 C   0  0  0  0  0  0  0  0  0  0  0  0
   -2.1550   -3.7860    4.5470 O   0  0  0  0  0  0  0  0  0  0  0  0
    0.0000    0.0000    0.0000 H   0  0  0  0  0  0  0  0  0  0  0  0
    0.0000    0.0000    0.0000 H   0  0  0  0  0  0  0  0  0  0  0  0
    0.0000    0.0000    0.0000 H   0  0  0  0  0  0  0  0  0  0  0  0
    0.0000    0.0000    0.0000 H   0  0  0  0  0  0  0  0  0  0  0  0
    0.0000    0.0000    0.0000 H   0  0  0  0  0  0  0  0  0  0  0  0
    0.0000    0.0000    0.0000 H   0  0  0  0  0  0  0  0  0  0  0  0
    0.0000    0.0000    0.0000 H   0  0  0  0  0  0  0  0  0  0  0  0
    0.0000    0.0000    0.0000 H   0  0  0  0  0  0  0  0  0  0  0  0
    0.0000    0.0000    0.0000 H   0  0  0  0  0  0  0  0  0  0  0  0
    0.0000    0.0000    0.0000 H   0  0  0  0  0  0  0  0  0  0  0  0
    0.0000    0.0000    0.0000 H   0  0  0  0  0  0  0  0  0  0  0  0
    0.0000    0.0000    0.0000 H   0  0  0  0  0  0  0  0  0  0  0  0
    0.0000    0.0000    0.0000 H   0  0  0  0  0  0  0  0  0  0  0  0
    0.0000    0.0000    0.0000 H   0  0  0  0  0  0  0  0  0  0  0  0
  1  2  1  0
  2  3  1  0
  2  4  1  0
  2  5  1  0
  5 10  2  0
  5  6  1  0
  6  7  2  0
  7  8  1  0
  8  9  2  0
  9 10  1  0
  8 11  1  0
  1 12  1  0
  1 13  1  0
  1 14  1  0
  3 15  1  0
  3 16  1  0
  3 17  1  0
  4 18  1  0
  4 19  1  0
  4 20  1  0
  6 21  1  0
  7 22  1  0
  9 23  1  0
 10 24  1  0
 11 25  1  0
M  END
>  <partial_charges>  (352) 
-0.0857999995351
-0.00579999992624
-0.0857999995351
-0.0857999995351
-0.0983999967575
-0.0925000011921
-0.185299992561
0.120300002396
-0.185299992561
-0.0925000011921
-0.498100012541
0.0364999994636
0.0364999994636
0.0364999994636
0.0364999994636
0.0364999994636
0.0364999994636
0.0364999994636
0.0364999994636
0.0364999994636
0.134299993515
0.139799997211
0.139799997211
0.134299993515
0.418199986219

>  <partial_bond_orders>  (352) 
1.0
1.0
1.0
1.0
2.0
1.0
2.0
1.0
2.0
1.0
1.0
1.0
1.0
1.0
1.0
1.0
1.0
1.0
1.0
1.0
1.0
1.0
1.0
1.0
1.0

>  <atom_types>  (352) 
c3
c3
c3
c3
ca
ca
ca
ca
ca
ca
oh
hc
hc
hc
hc
hc
hc
hc
hc
hc
ha
ha
ha
ha
ho

>  <target>  (352) 
-5.91

>  <cal>  (352) 
-5.543

$$$$
mobley_3690931
     RDKit          3D

 23 22  0  0  0  0  0  0  0  0999 V2000
   -0.3790   -0.7020    0.7540 C   0  0  0  0  0  0  0  0  0  0  0  0
    0.4040   -0.5830    2.0510 C   0  0  0  0  0  0  0  0  0  0  0  0
    1.8850   -0.8880    1.8410 C   0  0  0  0  0  0  0  0  0  0  0  0
    2.6750   -0.7720    3.1240 C   0  0  0  0  0  0  0  0  0  0  0  0
    2.2090   -0.4720    4.2150 O   0  0  0  0  0  0  0  0  0  0  0  0
    3.9850   -1.0580    2.8640 O   0  0  0  0  0  0  0  0  0  0  0  0
    4.8660   -0.9910    3.9910 C   0  0  0  0  0  0  0  0  0  0  0  0
    6.2690   -1.3350    3.5260 C   0  0  0  0  0  0  0  0  0  0  0  0
    7.2620   -1.2840    4.6730 C   0  0  0  0  0  0  0  0  0  0  0  0
    0.0000    0.0000    0.0000 H   0  0  0  0  0  0  0  0  0  0  0  0
    0.0000    0.0000    0.0000 H   0  0  0  0  0  0  0  0  0  0  0  0
    0.0000    0.0000    0.0000 H   0  0  0  0  0  0  0  0  0  0  0  0
    0.0000    0.0000    0.0000 H   0  0  0  0  0  0  0  0  0  0  0  0
    0.0000    0.0000    0.0000 H   0  0  0  0  0  0  0  0  0  0  0  0
    0.0000    0.0000    0.0000 H   0  0  0  0  0  0  0  0  0  0  0  0
    0.0000    0.0000    0.0000 H   0  0  0  0  0  0  0  0  0  0  0  0
    0.0000    0.0000    0.0000 H   0  0  0  0  0  0  0  0  0  0  0  0
    0.0000    0.0000    0.0000 H   0  0  0  0  0  0  0  0  0  0  0  0
    0.0000    0.0000    0.0000 H   0  0  0  0  0  0  0  0  0  0  0  0
    0.0000    0.0000    0.0000 H   0  0  0  0  0  0  0  0  0  0  0  0
    0.0000    0.0000    0.0000 H   0  0  0  0  0  0  0  0  0  0  0  0
    0.0000    0.0000    0.0000 H   0  0  0  0  0  0  0  0  0  0  0  0
    0.0000    0.0000    0.0000 H   0  0  0  0  0  0  0  0  0  0  0  0
  1  2  1  0
  2  3  1  0
  3  4  1  0
  4  5  2  0
  4  6  1  0
  6  7  1  0
  7  8  1  0
  8  9  1  0
  1 10  1  0
  1 11  1  0
  1 12  1  0
  2 13  1  0
  2 14  1  0
  3 15  1  0
  3 16  1  0
  7 17  1  0
  7 18  1  0
  8 19  1  0
  8 20  1  0
  9 21  1  0
  9 22  1  0
  9 23  1  0
M  END
>  <partial_charges>  (353) 
-0.0936999991536
-0.0793000012636
-0.132799997926
0.634999990463
-0.532899975777
-0.448799997568
0.132899999619
-0.109399996698
-0.0920000001788
0.0379999987781
0.0379999987781
0.0379999987781
0.0527999997139
0.0527999997139
0.077500000596
0.077500000596
0.0678000003099
0.0678000003099
0.049699999392
0.049699999392
0.0370999984443
0.0370999984443
0.0370999984443

>  <partial_bond_orders>  (353) 
1.0
1.0
1.0
2.0
1.0
1.0
1.0
1.0
1.0
1.0
1.0
1.0
1.0
1.0
1.0
1.0
1.0
1.0
1.0
1.0
1.0
1.0

>  <atom_types>  (353) 
c3
c3
c3
c
o
os
c3
c3
c3
hc
hc
hc
hc
hc
hc
hc
h1
h1
hc
hc
hc
hc
hc

>  <target>  (353) 
-2.28

>  <cal>  (353) 
-2.754

$$$$
mobley_7732703
     RDKit          3D

  5  4  0  0  0  0  0  0  0  0999 V2000
   -0.0790   -0.0120    0.0410 C   0  0  0  0  0  0  0  0  0  0  0  0
   -0.0160   -1.0030    0.9600 F   0  0  0  0  0  0  0  0  0  0  0  0
   -1.0430   -0.3420   -0.8500 F   0  0  0  0  0  0  0  0  0  0  0  0
   -0.4800    1.1120    0.6790 F   0  0  0  0  0  0  0  0  0  0  0  0
    1.6190    0.2450   -0.8300 Br  0  0  0  0  0  0  0  0  0  0  0  0
  1  2  1  0
  1  3  1  0
  1  4  1  0
  1  5  1  0
M  END
>  <partial_charges>  (354) 
0.707799971104
-0.207000002265
-0.207000002265
-0.207000002265
-0.0868000015616

>  <partial_bond_orders>  (354) 
1.0
1.0
1.0
1.0

>  <atom_types>  (354) 
c3
f
f
f
br

>  <target>  (354) 
1.79

>  <cal>  (354) 
1.564

$$$$
mobley_1502181
     RDKit          3D

 28 27  0  0  0  0  0  0  0  0999 V2000
   -0.8410   -2.5070   -4.9180 C   0  0  0  0  0  0  0  0  0  0  0  0
   -0.4700   -2.3950   -3.4470 C   0  0  0  0  0  0  0  0  0  0  0  0
   -0.2310   -0.9400   -3.0390 C   0  0  0  0  0  0  0  0  0  0  0  0
    0.1420   -0.8360   -1.5590 C   0  0  0  0  0  0  0  0  0  0  0  0
    0.3920    0.6020   -1.0940 C   0  0  0  0  0  0  0  0  0  0  0  0
    0.7650    0.7070    0.3860 C   0  0  0  0  0  0  0  0  0  0  0  0
    1.0030    2.1590    0.7940 C   0  0  0  0  0  0  0  0  0  0  0  0
    1.3760    2.2990    2.2600 C   0  0  0  0  0  0  0  0  0  0  0  0
    1.4710    1.3350    3.0190 O   0  0  0  0  0  0  0  0  0  0  0  0
    1.6270    3.7010    2.7500 C   0  0  0  0  0  0  0  0  0  0  0  0
    0.0000    0.0000    0.0000 H   0  0  0  0  0  0  0  0  0  0  0  0
    0.0000    0.0000    0.0000 H   0  0  0  0  0  0  0  0  0  0  0  0
    0.0000    0.0000    0.0000 H   0  0  0  0  0  0  0  0  0  0  0  0
    0.0000    0.0000    0.0000 H   0  0  0  0  0  0  0  0  0  0  0  0
    0.0000    0.0000    0.0000 H   0  0  0  0  0  0  0  0  0  0  0  0
    0.0000    0.0000    0.0000 H   0  0  0  0  0  0  0  0  0  0  0  0
    0.0000    0.0000    0.0000 H   0  0  0  0  0  0  0  0  0  0  0  0
    0.0000    0.0000    0.0000 H   0  0  0  0  0  0  0  0  0  0  0  0
    0.0000    0.0000    0.0000 H   0  0  0  0  0  0  0  0  0  0  0  0
    0.0000    0.0000    0.0000 H   0  0  0  0  0  0  0  0  0  0  0  0
    0.0000    0.0000    0.0000 H   0  0  0  0  0  0  0  0  0  0  0  0
    0.0000    0.0000    0.0000 H   0  0  0  0  0  0  0  0  0  0  0  0
    0.0000    0.0000    0.0000 H   0  0  0  0  0  0  0  0  0  0  0  0
    0.0000    0.0000    0.0000 H   0  0  0  0  0  0  0  0  0  0  0  0
    0.0000    0.0000    0.0000 H   0  0  0  0  0  0  0  0  0  0  0  0
    0.0000    0.0000    0.0000 H   0  0  0  0  0  0  0  0  0  0  0  0
    0.0000    0.0000    0.0000 H   0  0  0  0  0  0  0  0  0  0  0  0
    0.0000    0.0000    0.0000 H   0  0  0  0  0  0  0  0  0  0  0  0
  1  2  1  0
  2  3  1  0
  3  4  1  0
  4  5  1  0
  5  6  1  0
  6  7  1  0
  7  8  1  0
  8  9  2  0
  8 10  1  0
  1 11  1  0
  1 12  1  0
  1 13  1  0
  2 14  1  0
  2 15  1  0
  3 16  1  0
  3 17  1  0
  4 18  1  0
  4 19  1  0
  5 20  1  0
  5 21  1  0
  6 22  1  0
  6 23  1  0
  7 24  1  0
  7 25  1  0
 10 26  1  0
 10 27  1  0
 10 28  1  0
M  END
>  <partial_charges>  (355) 
-0.0913999974728
-0.0800999999046
-0.077699996531
-0.0777999982238
-0.0773999989033
-0.0744000002742
-0.180500000715
0.564499974251
-0.531899988651
-0.204300001264
0.0329999998212
0.0329999998212
0.0329999998212
0.0384000018239
0.0384000018239
0.0377000011504
0.0377000011504
0.0412999987602
0.0412999987602
0.0368000008166
0.0368000008166
0.0540999993682
0.0540999993682
0.063299998641
0.063299998641
0.0628999993205
0.0628999993205
0.0628999993205

>  <partial_bond_orders>  (355) 
1.0
1.0
1.0
1.0
1.0
1.0
1.0
2.0
1.0
1.0
1.0
1.0
1.0
1.0
1.0
1.0
1.0
1.0
1.0
1.0
1.0
1.0
1.0
1.0
1.0
1.0
1.0

>  <atom_types>  (355) 
c3
c3
c3
c3
c3
c3
c3
c
o
c3
hc
hc
hc
hc
hc
hc
hc
hc
hc
hc
hc
hc
hc
hc
hc
hc
hc
hc

>  <target>  (355) 
-2.49

>  <cal>  (355) 
-2.563

$$$$
mobley_1674094
     RDKit          3D

 16 15  0  0  0  0  0  0  0  0999 V2000
    0.4570    0.7170   -2.3330 C   0  0  0  0  0  0  0  0  0  0  0  0
   -0.4390    0.6570   -1.1060 C   0  0  0  0  0  0  0  0  0  0  0  0
    0.2210   -0.1210    0.0320 C   0  0  0  0  0  0  0  0  0  0  0  0
   -0.6830   -0.1780    1.2640 C   0  0  0  0  0  0  0  0  0  0  0  0
   -0.0440   -0.9270    2.3550 C   0  0  0  0  0  0  0  0  0  0  0  0
    0.4750   -1.5380    3.2490 C   0  0  0  0  0  0  0  0  0  0  0  0
    0.0000    0.0000    0.0000 H   0  0  0  0  0  0  0  0  0  0  0  0
    0.0000    0.0000    0.0000 H   0  0  0  0  0  0  0  0  0  0  0  0
    0.0000    0.0000    0.0000 H   0  0  0  0  0  0  0  0  0  0  0  0
    0.0000    0.0000    0.0000 H   0  0  0  0  0  0  0  0  0  0  0  0
    0.0000    0.0000    0.0000 H   0  0  0  0  0  0  0  0  0  0  0  0
    0.0000    0.0000    0.0000 H   0  0  0  0  0  0  0  0  0  0  0  0
    0.0000    0.0000    0.0000 H   0  0  0  0  0  0  0  0  0  0  0  0
    0.0000    0.0000    0.0000 H   0  0  0  0  0  0  0  0  0  0  0  0
    0.0000    0.0000    0.0000 H   0  0  0  0  0  0  0  0  0  0  0  0
    0.0000    0.0000    0.0000 H   0  0  0  0  0  0  0  0  0  0  0  0
  1  2  1  0
  2  3  1  0
  3  4  1  0
  4  5  1  0
  5  6  3  0
  1  7  1  0
  1  8  1  0
  1  9  1  0
  2 10  1  0
  2 11  1  0
  3 12  1  0
  3 13  1  0
  4 14  1  0
  4 15  1  0
  6 16  1  0
M  END
>  <partial_charges>  (356) 
-0.0922999978065
-0.0808999985456
-0.0768000036478
-0.00219999998808
-0.138300001621
-0.162900000811
0.034200001508
0.034200001508
0.034200001508
0.0386000014842
0.0386000014842
0.0469000004232
0.0469000004232
0.0582999996841
0.0582999996841
0.163399994373

>  <partial_bond_orders>  (356) 
1.0
1.0
1.0
1.0
3.0
1.0
1.0
1.0
1.0
1.0
1.0
1.0
1.0
1.0
1.0

>  <atom_types>  (356) 
c3
c3
c3
c3
c1
c1
hc
hc
hc
hc
hc
hc
hc
hc
hc
ha

>  <target>  (356) 
0.29

>  <cal>  (356) 
0.553

$$$$
mobley_6102880
     RDKit          3D

 23 24  0  0  0  0  0  0  0  0999 V2000
    1.8830   -1.0350   -0.1130 C   0  0  0  0  0  0  0  0  0  0  0  0
    3.0690   -0.9910    0.6220 C   0  0  0  0  0  0  0  0  0  0  0  0
    3.0270   -1.0130    2.0160 C   0  0  0  0  0  0  0  0  0  0  0  0
    1.8000   -1.0790    2.6760 C   0  0  0  0  0  0  0  0  0  0  0  0
    0.6150   -1.1230    1.9420 C   0  0  0  0  0  0  0  0  0  0  0  0
    0.6560   -1.1010    0.5470 C   0  0  0  0  0  0  0  0  0  0  0  0
    1.7590   -1.0980    4.0360 O   0  0  0  0  0  0  0  0  0  0  0  0
    2.6460   -1.9330    4.6940 C   0  0  0  0  0  0  0  0  0  0  0  0
    3.3520   -1.4660    5.8030 C   0  0  0  0  0  0  0  0  0  0  0  0
    4.2450   -2.3070    6.4670 C   0  0  0  0  0  0  0  0  0  0  0  0
    4.4330   -3.6160    6.0210 C   0  0  0  0  0  0  0  0  0  0  0  0
    3.7270   -4.0830    4.9120 C   0  0  0  0  0  0  0  0  0  0  0  0
    2.8340   -3.2420    4.2490 C   0  0  0  0  0  0  0  0  0  0  0  0
    0.0000    0.0000    0.0000 H   0  0  0  0  0  0  0  0  0  0  0  0
    0.0000    0.0000    0.0000 H   0  0  0  0  0  0  0  0  0  0  0  0
    0.0000    0.0000    0.0000 H   0  0  0  0  0  0  0  0  0  0  0  0
    0.0000    0.0000    0.0000 H   0  0  0  0  0  0  0  0  0  0  0  0
    0.0000    0.0000    0.0000 H   0  0  0  0  0  0  0  0  0  0  0  0
    0.0000    0.0000    0.0000 H   0  0  0  0  0  0  0  0  0  0  0  0
    0.0000    0.0000    0.0000 H   0  0  0  0  0  0  0  0  0  0  0  0
    0.0000    0.0000    0.0000 H   0  0  0  0  0  0  0  0  0  0  0  0
    0.0000    0.0000    0.0000 H   0  0  0  0  0  0  0  0  0  0  0  0
    0.0000    0.0000    0.0000 H   0  0  0  0  0  0  0  0  0  0  0  0
  1  6  2  0
  1  2  1  0
  2  3  2  0
  3  4  1  0
  4  5  2  0
  5  6  1  0
  4  7  1  0
  7  8  1  0
  8 13  1  0
  8  9  2  0
  9 10  1  0
 10 11  2  0
 11 12  1  0
 12 13  2  0
  1 14  1  0
  2 15  1  0
  3 16  1  0
  5 17  1  0
  6 18  1  0
  9 19  1  0
 10 20  1  0
 11 21  1  0
 12 22  1  0
 13 23  1  0
M  END
>  <partial_charges>  (357) 
-0.14509999752
-0.112700000405
-0.150499999523
0.0983999967575
-0.150499999523
-0.112700000405
-0.254400014877
0.0983999967575
-0.150499999523
-0.112700000405
-0.144999995828
-0.112700000405
-0.150499999523
0.134499996901
0.134599998593
0.148300006986
0.148300006986
0.134599998593
0.148300006986
0.134599998593
0.134499996901
0.134599998593
0.148300006986

>  <partial_bond_orders>  (357) 
2.0
1.0
2.0
1.0
2.0
1.0
1.0
1.0
2.0
1.0
2.0
1.0
2.0
1.0
1.0
1.0
1.0
1.0
1.0
1.0
1.0
1.0
1.0
1.0

>  <atom_types>  (357) 
ca
ca
ca
ca
ca
ca
os
ca
ca
ca
ca
ca
ca
ha
ha
ha
ha
ha
ha
ha
ha
ha
ha

>  <target>  (357) 
-2.87

>  <cal>  (357) 
-2.81

$$$$
mobley_5471704
     RDKit          3D

 23 22  0  0  0  0  0  0  0  0999 V2000
   -0.2770   -3.2840   -0.8540 C   0  0  0  0  0  0  0  0  0  0  0  0
   -0.6860   -1.8170   -0.9950 C   0  0  0  0  0  0  0  0  0  0  0  0
    0.0170   -0.9790    0.0740 C   0  0  0  0  0  0  0  0  0  0  0  0
   -0.3810   -1.3240   -2.4190 C   0  0  0  0  0  0  0  0  0  0  0  0
   -1.1140   -2.0990   -3.5070 C   0  0  0  0  0  0  0  0  0  0  0  0
   -0.7560   -1.5580   -4.7720 O   0  0  0  0  0  0  0  0  0  0  0  0
   -1.3360   -2.1520   -5.8590 C   0  0  0  0  0  0  0  0  0  0  0  0
   -2.1210   -3.0910   -5.8330 O   0  0  0  0  0  0  0  0  0  0  0  0
   -0.8700   -1.4820   -7.1150 C   0  0  0  0  0  0  0  0  0  0  0  0
    0.0000    0.0000    0.0000 H   0  0  0  0  0  0  0  0  0  0  0  0
    0.0000    0.0000    0.0000 H   0  0  0  0  0  0  0  0  0  0  0  0
    0.0000    0.0000    0.0000 H   0  0  0  0  0  0  0  0  0  0  0  0
    0.0000    0.0000    0.0000 H   0  0  0  0  0  0  0  0  0  0  0  0
    0.0000    0.0000    0.0000 H   0  0  0  0  0  0  0  0  0  0  0  0
    0.0000    0.0000    0.0000 H   0  0  0  0  0  0  0  0  0  0  0  0
    0.0000    0.0000    0.0000 H   0  0  0  0  0  0  0  0  0  0  0  0
    0.0000    0.0000    0.0000 H   0  0  0  0  0  0  0  0  0  0  0  0
    0.0000    0.0000    0.0000 H   0  0  0  0  0  0  0  0  0  0  0  0
    0.0000    0.0000    0.0000 H   0  0  0  0  0  0  0  0  0  0  0  0
    0.0000    0.0000    0.0000 H   0  0  0  0  0  0  0  0  0  0  0  0
    0.0000    0.0000    0.0000 H   0  0  0  0  0  0  0  0  0  0  0  0
    0.0000    0.0000    0.0000 H   0  0  0  0  0  0  0  0  0  0  0  0
    0.0000    0.0000    0.0000 H   0  0  0  0  0  0  0  0  0  0  0  0
  1  2  1  0
  2  3  1  0
  2  4  1  0
  4  5  1  0
  5  6  1  0
  6  7  1  0
  7  8  2  0
  7  9  1  0
  1 10  1  0
  1 11  1  0
  1 12  1  0
  2 13  1  0
  3 14  1  0
  3 15  1  0
  3 16  1  0
  4 17  1  0
  4 18  1  0
  5 19  1  0
  5 20  1  0
  9 21  1  0
  9 22  1  0
  9 23  1  0
M  END
>  <partial_charges>  (358) 
-0.0912000015378
-0.0654999986291
-0.0912000015378
-0.110299997032
0.134900003672
-0.443399995565
0.631699979305
-0.541000008583
-0.152199998498
0.0340000018477
0.0340000018477
0.0340000018477
0.055799998343
0.0340000018477
0.0340000018477
0.0340000018477
0.0559000000358
0.0559000000358
0.0653999969363
0.0653999969363
0.0754000023007
0.0754000023007
0.0754000023007

>  <partial_bond_orders>  (358) 
1.0
1.0
1.0
1.0
1.0
1.0
2.0
1.0
1.0
1.0
1.0
1.0
1.0
1.0
1.0
1.0
1.0
1.0
1.0
1.0
1.0
1.0

>  <atom_types>  (358) 
c3
c3
c3
c3
c3
os
c
o
c3
hc
hc
hc
hc
hc
hc
hc
hc
hc
h1
h1
hc
hc
hc

>  <target>  (358) 
-2.21

>  <cal>  (358) 
-3.067

$$$$
mobley_8705848
     RDKit          3D

 22 21  0  0  0  0  0  0  0  0999 V2000
    1.5590    0.7060    2.5690 C   0  0  0  0  0  0  0  0  0  0  0  0
    0.9770   -0.5160    1.8750 C   0  0  0  0  0  0  0  0  0  0  0  0
    0.2650   -1.4370    2.8560 C   0  0  0  0  0  0  0  0  0  0  0  0
    2.0720   -1.2700    1.2180 N   0  0  0  0  0  0  0  0  0  0  0  0
    2.4180   -0.6430   -0.0400 C   0  0  0  0  0  0  0  0  0  0  0  0
    1.4170   -1.0460   -1.1310 C   0  0  0  0  0  0  0  0  0  0  0  0
    3.8430   -1.0340   -0.4510 C   0  0  0  0  0  0  0  0  0  0  0  0
    0.0000    0.0000    0.0000 H   0  0  0  0  0  0  0  0  0  0  0  0
    0.0000    0.0000    0.0000 H   0  0  0  0  0  0  0  0  0  0  0  0
    0.0000    0.0000    0.0000 H   0  0  0  0  0  0  0  0  0  0  0  0
    0.0000    0.0000    0.0000 H   0  0  0  0  0  0  0  0  0  0  0  0
    0.0000    0.0000    0.0000 H   0  0  0  0  0  0  0  0  0  0  0  0
    0.0000    0.0000    0.0000 H   0  0  0  0  0  0  0  0  0  0  0  0
    0.0000    0.0000    0.0000 H   0  0  0  0  0  0  0  0  0  0  0  0
    0.0000    0.0000    0.0000 H   0  0  0  0  0  0  0  0  0  0  0  0
    0.0000    0.0000    0.0000 H   0  0  0  0  0  0  0  0  0  0  0  0
    0.0000    0.0000    0.0000 H   0  0  0  0  0  0  0  0  0  0  0  0
    0.0000    0.0000    0.0000 H   0  0  0  0  0  0  0  0  0  0  0  0
    0.0000    0.0000    0.0000 H   0  0  0  0  0  0  0  0  0  0  0  0
    0.0000    0.0000    0.0000 H   0  0  0  0  0  0  0  0  0  0  0  0
    0.0000    0.0000    0.0000 H   0  0  0  0  0  0  0  0  0  0  0  0
    0.0000    0.0000    0.0000 H   0  0  0  0  0  0  0  0  0  0  0  0
  1  2  1  0
  2  3  1  0
  2  4  1  0
  4  5  1  0
  5  6  1  0
  5  7  1  0
  1  8  1  0
  1  9  1  0
  1 10  1  0
  2 11  1  0
  3 12  1  0
  3 13  1  0
  3 14  1  0
  4 15  1  0
  5 16  1  0
  6 17  1  0
  6 18  1  0
  6 19  1  0
  7 20  1  0
  7 21  1  0
  7 22  1  0
M  END
>  <partial_charges>  (359) 
-0.1018999964
0.174700006843
-0.1018999964
-0.822399973869
0.174700006843
-0.1018999964
-0.1018999964
0.0373999997973
0.0373999997973
0.0373999997973
0.0375000014901
0.0373999997973
0.0373999997973
0.0373999997973
0.357100009918
0.0375000014901
0.0373999997973
0.0373999997973
0.0373999997973
0.0373999997973
0.0373999997973
0.0373999997973

>  <partial_bond_orders>  (359) 
1.0
1.0
1.0
1.0
1.0
1.0
1.0
1.0
1.0
1.0
1.0
1.0
1.0
1.0
1.0
1.0
1.0
1.0
1.0
1.0
1.0

>  <atom_types>  (359) 
c3
c3
c3
n3
c3
c3
c3
hc
hc
hc
h1
hc
hc
hc
hn
h1
hc
hc
hc
hc
hc
hc

>  <target>  (359) 
-3.22

>  <cal>  (359) 
-1.985

$$$$
mobley_2005792
     RDKit          3D

 22 23  0  0  0  0  0  0  0  0999 V2000
    1.8850   -1.0360   -0.1120 C   0  0  0  0  0  0  0  0  0  0  0  0
    2.9210   -1.6310    0.6080 C   0  0  0  0  0  0  0  0  0  0  0  0
    2.8780   -1.6520    2.0020 C   0  0  0  0  0  0  0  0  0  0  0  0
    1.8000   -1.0790    2.6760 C   0  0  0  0  0  0  0  0  0  0  0  0
    0.7640   -0.4840    1.9550 C   0  0  0  0  0  0  0  0  0  0  0  0
    0.8070   -0.4630    0.5610 C   0  0  0  0  0  0  0  0  0  0  0  0
    1.7550   -1.1010    4.1220 C   0  0  0  0  0  0  0  0  0  0  0  0
    2.9410   -1.0880    4.8560 C   0  0  0  0  0  0  0  0  0  0  0  0
    2.8980   -1.1090    6.2500 C   0  0  0  0  0  0  0  0  0  0  0  0
    1.6690   -1.1430    6.9100 C   0  0  0  0  0  0  0  0  0  0  0  0
    0.4830   -1.1550    6.1750 C   0  0  0  0  0  0  0  0  0  0  0  0
    0.5260   -1.1340    4.7810 C   0  0  0  0  0  0  0  0  0  0  0  0
    0.0000    0.0000    0.0000 H   0  0  0  0  0  0  0  0  0  0  0  0
    0.0000    0.0000    0.0000 H   0  0  0  0  0  0  0  0  0  0  0  0
    0.0000    0.0000    0.0000 H   0  0  0  0  0  0  0  0  0  0  0  0
    0.0000    0.0000    0.0000 H   0  0  0  0  0  0  0  0  0  0  0  0
    0.0000    0.0000    0.0000 H   0  0  0  0  0  0  0  0  0  0  0  0
    0.0000    0.0000    0.0000 H   0  0  0  0  0  0  0  0  0  0  0  0
    0.0000    0.0000    0.0000 H   0  0  0  0  0  0  0  0  0  0  0  0
    0.0000    0.0000    0.0000 H   0  0  0  0  0  0  0  0  0  0  0  0
    0.0000    0.0000    0.0000 H   0  0  0  0  0  0  0  0  0  0  0  0
    0.0000    0.0000    0.0000 H   0  0  0  0  0  0  0  0  0  0  0  0
  1  6  2  0
  1  2  1  0
  2  3  2  0
  3  4  1  0
  4  5  2  0
  5  6  1  0
  4  7  1  0
  7 12  1  0
  7  8  2  0
  8  9  1  0
  9 10  2  0
 10 11  1  0
 11 12  2  0
  1 13  1  0
  2 14  1  0
  3 15  1  0
  5 16  1  0
  6 17  1  0
  8 18  1  0
  9 19  1  0
 10 20  1  0
 11 21  1  0
 12 22  1  0
M  END
>  <partial_charges>  (360) 
-0.127700001001
-0.130500003695
-0.119400002062
-0.0355000011623
-0.119400002062
-0.130500003695
-0.0355000011623
-0.119400002062
-0.130500003695
-0.127599999309
-0.130500003695
-0.119400002062
0.130899995565
0.131799995899
0.134200006723
0.134200006723
0.131799995899
0.134200006723
0.131799995899
0.130899995565
0.131799995899
0.134200006723

>  <partial_bond_orders>  (360) 
2.0
1.0
2.0
1.0
2.0
1.0
1.0
2.0
1.0
2.0
1.0
2.0
1.0
1.0
1.0
1.0
1.0
1.0
1.0
1.0
1.0
1.0
1.0

>  <atom_types>  (360) 
ca
ca
ca
cp
ca
ca
cp
ca
ca
ca
ca
ca
ha
ha
ha
ha
ha
ha
ha
ha
ha
ha

>  <target>  (360) 
-2.7

>  <cal>  (360) 
-3.143

$$$$
mobley_2261979
     RDKit          3D

 22 24  0  0  0  0  0  0  0  0999 V2000
    5.8400   -0.4220    0.1830 C   0  0  0  0  0  0  0  0  0  0  0  0
    4.6660    0.2960   -0.1180 C   0  0  0  0  0  0  0  0  0  0  0  0
    3.4050   -0.2820    0.1220 C   0  0  0  0  0  0  0  0  0  0  0  0
    2.1390    0.2830   -0.1160 C   0  0  0  0  0  0  0  0  0  0  0  0
    0.9730   -0.4470    0.1880 C   0  0  0  0  0  0  0  0  0  0  0  0
    1.0450   -1.7420    0.7280 C   0  0  0  0  0  0  0  0  0  0  0  0
    2.2910   -2.2970    0.9610 C   0  0  0  0  0  0  0  0  0  0  0  0
    3.4130   -1.5710    0.6600 C   0  0  0  0  0  0  0  0  0  0  0  0
    4.5420   -2.2860    0.9590 C   0  0  0  0  0  0  0  0  0  0  0  0
    5.7820   -1.7170    0.7230 C   0  0  0  0  0  0  0  0  0  0  0  0
    4.2010   -3.6340    1.5210 C   0  0  0  0  0  0  0  0  0  0  0  0
    2.6480   -3.6420    1.5230 C   0  0  0  0  0  0  0  0  0  0  0  0
    0.0000    0.0000    0.0000 H   0  0  0  0  0  0  0  0  0  0  0  0
    0.0000    0.0000    0.0000 H   0  0  0  0  0  0  0  0  0  0  0  0
    0.0000    0.0000    0.0000 H   0  0  0  0  0  0  0  0  0  0  0  0
    0.0000    0.0000    0.0000 H   0  0  0  0  0  0  0  0  0  0  0  0
    0.0000    0.0000    0.0000 H   0  0  0  0  0  0  0  0  0  0  0  0
    0.0000    0.0000    0.0000 H   0  0  0  0  0  0  0  0  0  0  0  0
    0.0000    0.0000    0.0000 H   0  0  0  0  0  0  0  0  0  0  0  0
    0.0000    0.0000    0.0000 H   0  0  0  0  0  0  0  0  0  0  0  0
    0.0000    0.0000    0.0000 H   0  0  0  0  0  0  0  0  0  0  0  0
    0.0000    0.0000    0.0000 H   0  0  0  0  0  0  0  0  0  0  0  0
  1 10  2  0
  1  2  1  0
  2  3  2  0
  3  8  1  0
  3  4  1  0
  4  5  2  0
  5  6  1  0
  6  7  2  0
  7 12  1  0
  7  8  1  0
  8  9  2  0
  9 10  1  0
  9 11  1  0
 11 12  1  0
  1 13  1  0
  2 14  1  0
  4 15  1  0
  5 16  1  0
  6 17  1  0
 10 18  1  0
 11 19  1  0
 11 20  1  0
 12 21  1  0
 12 22  1  0
M  END
>  <partial_charges>  (361) 
-0.122299998999
-0.119499996305
-0.0207000002265
-0.119499996305
-0.122299998999
-0.121699996293
-0.070799998939
-0.063299998641
-0.070799998939
-0.121699996293
-0.0333000011742
-0.0333000011742
0.129500001669
0.131600007415
0.131600007415
0.129500001669
0.134100005031
0.134100005031
0.0573000013828
0.0573000013828
0.0573000013828
0.0573000013828

>  <partial_bond_orders>  (361) 
2.0
1.0
2.0
1.0
1.0
2.0
1.0
2.0
1.0
1.0
2.0
1.0
1.0
1.0
1.0
1.0
1.0
1.0
1.0
1.0
1.0
1.0
1.0
1.0

>  <atom_types>  (361) 
ca
ca
ca
ca
ca
ca
ca
ca
ca
ca
c3
c3
ha
ha
ha
ha
ha
ha
hc
hc
hc
hc

>  <target>  (361) 
-3.15

>  <cal>  (361) 
-4.198

$$$$
mobley_2727678
     RDKit          3D

 12 12  0  0  0  0  0  0  0  0999 V2000
   -0.2220   -0.0280   -1.4800 C   0  0  0  0  0  0  0  0  0  0  0  0
    0.8120   -0.4920   -0.7680 C   0  0  0  0  0  0  0  0  0  0  0  0
    0.7840   -0.3340    0.7170 C   0  0  0  0  0  0  0  0  0  0  0  0
    1.6930   -0.7320    1.4400 O   0  0  0  0  0  0  0  0  0  0  0  0
   -0.3520    0.2980    1.2120 N   0  0  0  0  0  0  0  0  0  0  0  0
   -1.4280    0.7780    0.4610 C   0  0  0  0  0  0  0  0  0  0  0  0
   -2.4030    1.3280    0.9730 O   0  0  0  0  0  0  0  0  0  0  0  0
   -1.3030    0.5830   -0.9040 N   0  0  0  0  0  0  0  0  0  0  0  0
    2.4180   -1.4020   -1.6510 I   0  0  0  0  0  0  0  0  0  0  0  0
    0.0000    0.0000    0.0000 H   0  0  0  0  0  0  0  0  0  0  0  0
    0.0000    0.0000    0.0000 H   0  0  0  0  0  0  0  0  0  0  0  0
    0.0000    0.0000    0.0000 H   0  0  0  0  0  0  0  0  0  0  0  0
  1  8  1  0
  1  2  2  0
  2  3  1  0
  3  4  2  0
  3  5  1  0
  5  6  1  0
  6  7  2  0
  6  8  1  0
  2  9  1  0
  1 10  1  0
  5 11  1  0
  8 12  1  0
M  END
>  <partial_charges>  (362) 
0.0925000011921
-0.194000005722
0.727999985218
-0.58520001173
-0.583599984646
0.803099989891
-0.626299977303
-0.465400010347
-0.0582999996841
0.171399995685
0.357899993658
0.359699994326

>  <partial_bond_orders>  (362) 
1.0
2.0
1.0
2.0
1.0
1.0
2.0
1.0
1.0
1.0
1.0
1.0

>  <atom_types>  (362) 
cc
cd
c
o
n
c
o
n
i
h4
hn
hn

>  <target>  (362) 
-18.72

>  <cal>  (362) 
-17.742

$$$$
mobley_5948990
     RDKit          3D

 16 16  0  0  0  0  0  0  0  0999 V2000
    1.8850   -1.0360   -0.1120 C   0  0  0  0  0  0  0  0  0  0  0  0
    2.9210   -1.6310    0.6080 C   0  0  0  0  0  0  0  0  0  0  0  0
    2.8780   -1.6520    2.0020 C   0  0  0  0  0  0  0  0  0  0  0  0
    1.8000   -1.0790    2.6760 C   0  0  0  0  0  0  0  0  0  0  0  0
    0.7640   -0.4840    1.9550 C   0  0  0  0  0  0  0  0  0  0  0  0
    0.8070   -0.4630    0.5610 C   0  0  0  0  0  0  0  0  0  0  0  0
   -0.3410    0.1030    2.6140 N   0  0  0  0  0  0  0  0  0  0  0  0
    1.7810   -1.1150    4.0980 N   0  0  0  0  0  0  0  0  0  0  0  0
    1.2430   -2.0910    4.6720 O   0  0  0  0  0  0  0  0  0  0  0  0
    2.3030   -0.1690    4.7340 O   0  0  0  0  0  0  0  0  0  0  0  0
    0.0000    0.0000    0.0000 H   0  0  0  0  0  0  0  0  0  0  0  0
    0.0000    0.0000    0.0000 H   0  0  0  0  0  0  0  0  0  0  0  0
    0.0000    0.0000    0.0000 H   0  0  0  0  0  0  0  0  0  0  0  0
    0.0000    0.0000    0.0000 H   0  0  0  0  0  0  0  0  0  0  0  0
    0.0000    0.0000    0.0000 H   0  0  0  0  0  0  0  0  0  0  0  0
    0.0000    0.0000    0.0000 H   0  0  0  0  0  0  0  0  0  0  0  0
  1  6  2  0
  1  2  1  0
  2  3  2  0
  3  4  1  0
  4  5  2  0
  5  6  1  0
  5  7  1  0
  4  8  1  0
  8  9  1  0
  8 10  1  0
  1 11  1  0
  2 12  1  0
  3 13  1  0
  6 14  1  0
  7 15  1  0
  7 16  1  0
M  CHG  2   9  -1  10  -1
M  END
>  <partial_charges>  (363) 
-0.0507000014186
-0.186199992895
-0.0348999984562
-0.245399996638
0.235300004482
-0.214100003242
-0.84350001812
0.318300008774
-0.213200002909
-0.213200002909
0.141200006008
0.14659999311
0.158299997449
0.142700001597
0.429399996996
0.429399996996

>  <partial_bond_orders>  (363) 
2.0
1.0
2.0
1.0
2.0
1.0
1.0
1.0
1.0
1.0
1.0
1.0
1.0
1.0
1.0
1.0

>  <atom_types>  (363) 
ca
ca
ca
ca
ca
ca
nh
no
o
o
ha
ha
ha
ha
hn
hn

>  <target>  (363) 
-7.37

>  <cal>  (363) 
-7.66

$$$$
mobley_1770205
     RDKit          3D

 31 32  0  0  0  0  0  0  0  0999 V2000
    0.8990    0.3180    0.1370 C   0  0  0  0  0  0  0  0  0  0  0  0
    1.1460   -1.0760    0.0650 O   0  0  0  0  0  0  0  0  0  0  0  0
    2.0710   -1.6910   -1.1350 P   0  0  0  0  0  0  0  0  0  0  0  0
    1.3290   -1.3170   -2.9120 S   0  0  0  0  0  0  0  0  0  0  0  0
    1.9400   -3.2710   -0.7340 O   0  0  0  0  0  0  0  0  0  0  0  0
    2.5950   -4.2640   -1.5070 C   0  0  0  0  0  0  0  0  0  0  0  0
    4.0770   -1.1110   -0.7260 S   0  0  0  0  0  0  0  0  0  0  0  0
    4.4610   -1.8270    0.8830 C   0  0  0  0  0  0  0  0  0  0  0  0
    5.8000   -1.5040    1.2750 N   0  0  0  0  0  0  0  0  0  0  0  0
    6.8360   -2.3670    0.9100 C   0  0  0  0  0  0  0  0  0  0  0  0
    6.6920   -3.4020    0.2670 O   0  0  0  0  0  0  0  0  0  0  0  0
    8.1740   -1.9700    1.3480 C   0  0  0  0  0  0  0  0  0  0  0  0
    9.3030   -2.7400    1.0530 C   0  0  0  0  0  0  0  0  0  0  0  0
   10.5550   -2.3160    1.4930 C   0  0  0  0  0  0  0  0  0  0  0  0
   10.6720   -1.1340    2.2210 C   0  0  0  0  0  0  0  0  0  0  0  0
    9.5350   -0.3750    2.5080 C   0  0  0  0  0  0  0  0  0  0  0  0
    8.2710   -0.7890    2.0710 C   0  0  0  0  0  0  0  0  0  0  0  0
    7.1580    0.0010    2.3780 N   0  0  0  0  0  0  0  0  0  0  0  0
    6.0210   -0.3530    1.9980 N   0  0  0  0  0  0  0  0  0  0  0  0
    0.0000    0.0000    0.0000 H   0  0  0  0  0  0  0  0  0  0  0  0
    0.0000    0.0000    0.0000 H   0  0  0  0  0  0  0  0  0  0  0  0
    0.0000    0.0000    0.0000 H   0  0  0  0  0  0  0  0  0  0  0  0
    0.0000    0.0000    0.0000 H   0  0  0  0  0  0  0  0  0  0  0  0
    0.0000    0.0000    0.0000 H   0  0  0  0  0  0  0  0  0  0  0  0
    0.0000    0.0000    0.0000 H   0  0  0  0  0  0  0  0  0  0  0  0
    0.0000    0.0000    0.0000 H   0  0  0  0  0  0  0  0  0  0  0  0
    0.0000    0.0000    0.0000 H   0  0  0  0  0  0  0  0  0  0  0  0
    0.0000    0.0000    0.0000 H   0  0  0  0  0  0  0  0  0  0  0  0
    0.0000    0.0000    0.0000 H   0  0  0  0  0  0  0  0  0  0  0  0
    0.0000    0.0000    0.0000 H   0  0  0  0  0  0  0  0  0  0  0  0
    0.0000    0.0000    0.0000 H   0  0  0  0  0  0  0  0  0  0  0  0
  1  2  1  0
  2  3  1  0
  3  4  2  0
  3  5  1  0
  5  6  1  0
  3  7  1  0
  7  8  1  0
  8  9  1  0
  9 19  1  0
  9 10  1  0
 10 11  2  0
 10 12  1  0
 12 17  2  0
 12 13  1  0
 13 14  2  0
 14 15  1  0
 15 16  2  0
 16 17  1  0
 17 18  1  0
 18 19  2  0
  1 20  1  0
  1 21  1  0
  1 22  1  0
  6 23  1  0
  6 24  1  0
  6 25  1  0
  8 26  1  0
  8 27  1  0
 13 28  1  0
 14 29  1  0
 15 30  1  0
 16 31  1  0
M  END
>  <partial_charges>  (364) 
0.125699996948
-0.497599989176
0.870199978352
-0.429899990559
-0.497599989176
0.125699996948
-0.42230001092
0.345999985933
-0.276300013065
0.693799972534
-0.59659999609
-0.163499996066
-0.0643000006676
-0.131400004029
-0.0995000004768
-0.0932999998331
0.109200000763
-0.229599997401
0.0248000007123
0.0681999996305
0.0681999996305
0.0681999996305
0.0681999996305
0.0681999996305
0.0681999996305
0.0909999981523
0.0909999981523
0.163699999452
0.145600005984
0.144700005651
0.161300003529

>  <partial_bond_orders>  (364) 
1.0
1.0
2.0
1.0
1.0
1.0
1.0
1.0
1.0
1.0
2.0
1.0
2.0
1.0
2.0
1.0
2.0
1.0
1.0
2.0
1.0
1.0
1.0
1.0
1.0
1.0
1.0
1.0
1.0
1.0
1.0
1.0

>  <atom_types>  (364) 
c3
os
p5
s
os
c3
ss
c3
n
c
o
ca
ca
ca
ca
ca
ca
nc
nd
h1
h1
h1
h1
h1
h1
h2
h2
ha
ha
ha
ha

>  <target>  (364) 
-10.03

>  <cal>  (364) 
-14.106

$$$$
mobley_5759258
     RDKit          3D

 18 17  0  0  0  0  0  0  0  0999 V2000
    0.7910   -0.3880    0.6500 C   0  0  0  0  0  0  0  0  0  0  0  0
    1.6190   -1.4420   -0.0690 C   0  0  0  0  0  0  0  0  0  0  0  0
    2.2940   -0.8690   -1.3150 C   0  0  0  0  0  0  0  0  0  0  0  0
    3.1240   -1.9290   -2.0350 C   0  0  0  0  0  0  0  0  0  0  0  0
    3.8000   -1.3670   -3.2770 C   0  0  0  0  0  0  0  0  0  0  0  0
    4.5530   -2.4000   -3.8970 O   0  0  0  0  0  0  0  0  0  0  0  0
    0.0000    0.0000    0.0000 H   0  0  0  0  0  0  0  0  0  0  0  0
    0.0000    0.0000    0.0000 H   0  0  0  0  0  0  0  0  0  0  0  0
    0.0000    0.0000    0.0000 H   0  0  0  0  0  0  0  0  0  0  0  0
    0.0000    0.0000    0.0000 H   0  0  0  0  0  0  0  0  0  0  0  0
    0.0000    0.0000    0.0000 H   0  0  0  0  0  0  0  0  0  0  0  0
    0.0000    0.0000    0.0000 H   0  0  0  0  0  0  0  0  0  0  0  0
    0.0000    0.0000    0.0000 H   0  0  0  0  0  0  0  0  0  0  0  0
    0.0000    0.0000    0.0000 H   0  0  0  0  0  0  0  0  0  0  0  0
    0.0000    0.0000    0.0000 H   0  0  0  0  0  0  0  0  0  0  0  0
    0.0000    0.0000    0.0000 H   0  0  0  0  0  0  0  0  0  0  0  0
    0.0000    0.0000    0.0000 H   0  0  0  0  0  0  0  0  0  0  0  0
    0.0000    0.0000    0.0000 H   0  0  0  0  0  0  0  0  0  0  0  0
  1  2  1  0
  2  3  1  0
  3  4  1  0
  4  5  1  0
  5  6  1  0
  1  7  1  0
  1  8  1  0
  1  9  1  0
  2 10  1  0
  2 11  1  0
  3 12  1  0
  3 13  1  0
  4 14  1  0
  4 15  1  0
  5 16  1  0
  5 17  1  0
  6 18  1  0
M  END
>  <partial_charges>  (365) 
-0.0922000035644
-0.0790999978781
-0.077500000596
-0.084399998188
0.13220000267
-0.601999998093
0.0331999994814
0.0331999994814
0.0331999994814
0.0401000007987
0.0401000007987
0.0384000018239
0.0384000018239
0.0546000003815
0.0546000003815
0.0193000007421
0.0193000007421
0.39849999547

>  <partial_bond_orders>  (365) 
1.0
1.0
1.0
1.0
1.0
1.0
1.0
1.0
1.0
1.0
1.0
1.0
1.0
1.0
1.0
1.0
1.0

>  <atom_types>  (365) 
c3
c3
c3
c3
c3
oh
hc
hc
hc
hc
hc
hc
hc
hc
hc
h1
h1
ho

>  <target>  (365) 
-4.57

>  <cal>  (365) 
-3.054

$$$$
mobley_3105103
     RDKit          3D

 27 27  0  0  0  0  0  0  0  0999 V2000
   -0.4760   -0.9590    0.2370 C   0  0  0  0  0  0  0  0  0  0  0  0
   -1.5590   -1.2580   -0.7630 C   0  0  0  0  0  0  0  0  0  0  0  0
   -1.6090   -2.3330   -1.5640 C   0  0  0  0  0  0  0  0  0  0  0  0
   -2.7480   -2.5150   -2.5110 C   0  0  0  0  0  0  0  0  0  0  0  0
   -2.8130   -3.5180   -3.2200 O   0  0  0  0  0  0  0  0  0  0  0  0
   -3.6940   -1.4780   -2.5080 N   0  0  0  0  0  0  0  0  0  0  0  0
   -3.6540   -0.3600   -1.6500 C   0  0  0  0  0  0  0  0  0  0  0  0
   -4.5160    0.5220   -1.6270 O   0  0  0  0  0  0  0  0  0  0  0  0
   -2.5560   -0.3130   -0.8090 N   0  0  0  0  0  0  0  0  0  0  0  0
   -4.7960   -1.5630   -3.4600 C   0  0  0  0  0  0  0  0  0  0  0  0
   -4.6460   -2.8430   -4.2850 C   0  0  0  0  0  0  0  0  0  0  0  0
   -6.1160   -1.5890   -2.6870 C   0  0  0  0  0  0  0  0  0  0  0  0
   -4.7530   -0.3430   -4.3840 C   0  0  0  0  0  0  0  0  0  0  0  0
   -0.4080   -3.5730   -1.5750 Cl  0  0  0  0  0  0  0  0  0  0  0  0
    0.0000    0.0000    0.0000 H   0  0  0  0  0  0  0  0  0  0  0  0
    0.0000    0.0000    0.0000 H   0  0  0  0  0  0  0  0  0  0  0  0
    0.0000    0.0000    0.0000 H   0  0  0  0  0  0  0  0  0  0  0  0
    0.0000    0.0000    0.0000 H   0  0  0  0  0  0  0  0  0  0  0  0
    0.0000    0.0000    0.0000 H   0  0  0  0  0  0  0  0  0  0  0  0
    0.0000    0.0000    0.0000 H   0  0  0  0  0  0  0  0  0  0  0  0
    0.0000    0.0000    0.0000 H   0  0  0  0  0  0  0  0  0  0  0  0
    0.0000    0.0000    0.0000 H   0  0  0  0  0  0  0  0  0  0  0  0
    0.0000    0.0000    0.0000 H   0  0  0  0  0  0  0  0  0  0  0  0
    0.0000    0.0000    0.0000 H   0  0  0  0  0  0  0  0  0  0  0  0
    0.0000    0.0000    0.0000 H   0  0  0  0  0  0  0  0  0  0  0  0
    0.0000    0.0000    0.0000 H   0  0  0  0  0  0  0  0  0  0  0  0
    0.0000    0.0000    0.0000 H   0  0  0  0  0  0  0  0  0  0  0  0
  1  2  1  0
  2  9  1  0
  2  3  2  0
  3  4  1  0
  4  5  2  0
  4  6  1  0
  6  7  1  0
  7  8  2  0
  7  9  1  0
  6 10  1  0
 10 11  1  0
 10 12  1  0
 10 13  1  0
  3 14  1  0
  1 15  1  0
  1 16  1  0
  1 17  1  0
  9 18  1  0
 11 19  1  0
 11 20  1  0
 11 21  1  0
 12 22  1  0
 12 23  1  0
 12 24  1  0
 13 25  1  0
 13 26  1  0
 13 27  1  0
M  END
>  <partial_charges>  (366) 
-0.0838999971747
0.108599998057
-0.181999996305
0.728999972343
-0.5882999897
-0.475899994373
0.808899998665
-0.644999980927
-0.474700003862
0.135000005364
-0.10719999671
-0.10719999671
-0.10719999671
-0.0419000014663
0.0706999972463
0.0706999972463
0.0706999972463
0.35379999876
0.0518000014126
0.0518000014126
0.0518000014126
0.0518000014126
0.0518000014126
0.0518000014126
0.0518000014126
0.0518000014126
0.0518000014126

>  <partial_bond_orders>  (366) 
1.0
1.0
2.0
1.0
2.0
1.0
1.0
2.0
1.0
1.0
1.0
1.0
1.0
1.0
1.0
1.0
1.0
1.0
1.0
1.0
1.0
1.0
1.0
1.0
1.0
1.0
1.0

>  <atom_types>  (366) 
c3
cc
cd
c
o
n
c
o
n
c3
c3
c3
c3
cl
hc
hc
hc
hn
hc
hc
hc
hc
hc
hc
hc
hc
hc

>  <target>  (366) 
-11.14

>  <cal>  (366) 
-13.769

$$$$
mobley_5631798
     RDKit          3D

  4  3  0  0  0  0  0  0  0  0999 V2000
    0.2270   -0.0500    0.1830 N   0  0  0  0  0  0  0  0  0  0  0  0
    0.0000    0.0000    0.0000 H   0  0  0  0  0  0  0  0  0  0  0  0
    0.0000    0.0000    0.0000 H   0  0  0  0  0  0  0  0  0  0  0  0
    0.0000    0.0000    0.0000 H   0  0  0  0  0  0  0  0  0  0  0  0
  1  2  1  0
  1  3  1  0
  1  4  1  0
M  END
>  <partial_charges>  (367) 
-1.01269996166
0.337599992752
0.337599992752
0.337599992752

>  <partial_bond_orders>  (367) 
1.0
1.0
1.0

>  <atom_types>  (367) 
n3
hn
hn
hn

>  <target>  (367) 
-4.29

>  <cal>  (367) 
-4.018

$$$$
mobley_8311303
     RDKit          3D

 22 23  0  0  0  0  0  0  0  0999 V2000
    1.8850   -1.0360   -0.1120 C   0  0  0  0  0  0  0  0  0  0  0  0
    2.9210   -1.6310    0.6080 C   0  0  0  0  0  0  0  0  0  0  0  0
    2.8780   -1.6520    2.0020 C   0  0  0  0  0  0  0  0  0  0  0  0
    1.8000   -1.0790    2.6760 C   0  0  0  0  0  0  0  0  0  0  0  0
    0.7640   -0.4840    1.9550 C   0  0  0  0  0  0  0  0  0  0  0  0
    0.8070   -0.4630    0.5610 C   0  0  0  0  0  0  0  0  0  0  0  0
   -0.2670    0.1540   -0.1870 C   0  0  0  0  0  0  0  0  0  0  0  0
   -0.2010    1.5090   -0.5130 C   0  0  0  0  0  0  0  0  0  0  0  0
   -1.2360    2.1040   -1.2340 C   0  0  0  0  0  0  0  0  0  0  0  0
   -2.3370    1.3450   -1.6300 C   0  0  0  0  0  0  0  0  0  0  0  0
   -2.4030   -0.0100   -1.3040 C   0  0  0  0  0  0  0  0  0  0  0  0
   -1.3680   -0.6050   -0.5830 C   0  0  0  0  0  0  0  0  0  0  0  0
   -1.4540   -2.2970   -0.1780 Cl  0  0  0  0  0  0  0  0  0  0  0  0
   -3.7990   -0.8870   -1.8290 Cl  0  0  0  0  0  0  0  0  0  0  0  0
   -1.2240    3.7780   -1.6750 Cl  0  0  0  0  0  0  0  0  0  0  0  0
    1.1720    2.4610   -0.0210 Cl  0  0  0  0  0  0  0  0  0  0  0  0
    1.6920   -1.0700    4.4010 Cl  0  0  0  0  0  0  0  0  0  0  0  0
    4.1940   -2.3990    2.8380 Cl  0  0  0  0  0  0  0  0  0  0  0  0
    0.0000    0.0000    0.0000 H   0  0  0  0  0  0  0  0  0  0  0  0
    0.0000    0.0000    0.0000 H   0  0  0  0  0  0  0  0  0  0  0  0
    0.0000    0.0000    0.0000 H   0  0  0  0  0  0  0  0  0  0  0  0
    0.0000    0.0000    0.0000 H   0  0  0  0  0  0  0  0  0  0  0  0
  1  6  2  0
  1  2  1  0
  2  3  2  0
  3  4  1  0
  4  5  2  0
  5  6  1  0
  6  7  1  0
  7 12  1  0
  7  8  2  0
  8  9  1  0
  9 10  2  0
 10 11  1  0
 11 12  2  0
 12 13  1  0
 11 14  1  0
  9 15  1  0
  8 16  1  0
  4 17  1  0
  3 18  1  0
  1 19  1  0
  2 20  1  0
  5 21  1  0
 10 22  1  0
M  END
>  <partial_charges>  (368) 
-0.0916000008583
-0.119800001383
0.0264999996871
0.0149999996647
-0.0877000018954
-0.0461999997497
-0.0205000005662
0.0333000011742
0.0195000004023
-0.104699999094
0.0195000004023
0.0333000011742
-0.0412999987602
-0.0511000007391
-0.0511000007391
-0.0412999987602
-0.0634000003338
-0.064099997282
0.150700002909
0.154499992728
0.159600004554
0.170900002122

>  <partial_bond_orders>  (368) 
2.0
1.0
2.0
1.0
2.0
1.0
1.0
2.0
1.0
2.0
1.0
2.0
1.0
1.0
1.0
1.0
1.0
1.0
1.0
1.0
1.0
1.0
1.0

>  <atom_types>  (368) 
ca
ca
ca
ca
ca
cp
cp
ca
ca
ca
ca
ca
cl
cl
cl
cl
cl
cl
ha
ha
ha
ha

>  <target>  (368) 
-4.38

>  <cal>  (368) 
-0.705

$$$$
mobley_547634
     RDKit          3D

 24 25  0  0  0  0  0  0  0  0999 V2000
   -1.8900   -1.7250    0.9330 C   0  0  0  0  0  0  0  0  0  0  0  0
   -0.4970   -2.0340    0.4940 C   0  0  0  0  0  0  0  0  0  0  0  0
   -0.0480   -3.3540    0.5450 C   0  0  0  0  0  0  0  0  0  0  0  0
    1.2560   -3.6840    0.1400 C   0  0  0  0  0  0  0  0  0  0  0  0
    1.7240   -5.0070    0.1850 C   0  0  0  0  0  0  0  0  0  0  0  0
    3.0230   -5.3170   -0.2210 C   0  0  0  0  0  0  0  0  0  0  0  0
    3.8690   -4.3100   -0.6760 C   0  0  0  0  0  0  0  0  0  0  0  0
    3.4210   -2.9900   -0.7270 C   0  0  0  0  0  0  0  0  0  0  0  0
    2.1170   -2.6600   -0.3220 C   0  0  0  0  0  0  0  0  0  0  0  0
    1.6480   -1.3370   -0.3660 C   0  0  0  0  0  0  0  0  0  0  0  0
    0.3500   -1.0280    0.0390 C   0  0  0  0  0  0  0  0  0  0  0  0
   -0.1090    0.3930   -0.0240 C   0  0  0  0  0  0  0  0  0  0  0  0
    0.0000    0.0000    0.0000 H   0  0  0  0  0  0  0  0  0  0  0  0
    0.0000    0.0000    0.0000 H   0  0  0  0  0  0  0  0  0  0  0  0
    0.0000    0.0000    0.0000 H   0  0  0  0  0  0  0  0  0  0  0  0
    0.0000    0.0000    0.0000 H   0  0  0  0  0  0  0  0  0  0  0  0
    0.0000    0.0000    0.0000 H   0  0  0  0  0  0  0  0  0  0  0  0
    0.0000    0.0000    0.0000 H   0  0  0  0  0  0  0  0  0  0  0  0
    0.0000    0.0000    0.0000 H   0  0  0  0  0  0  0  0  0  0  0  0
    0.0000    0.0000    0.0000 H   0  0  0  0  0  0  0  0  0  0  0  0
    0.0000    0.0000    0.0000 H   0  0  0  0  0  0  0  0  0  0  0  0
    0.0000    0.0000    0.0000 H   0  0  0  0  0  0  0  0  0  0  0  0
    0.0000    0.0000    0.0000 H   0  0  0  0  0  0  0  0  0  0  0  0
    0.0000    0.0000    0.0000 H   0  0  0  0  0  0  0  0  0  0  0  0
  1  2  1  0
  2 11  2  0
  2  3  1  0
  3  4  2  0
  4  9  1  0
  4  5  1  0
  5  6  2  0
  6  7  1  0
  7  8  2  0
  8  9  1  0
  9 10  2  0
 10 11  1  0
 11 12  1  0
  1 13  1  0
  1 14  1  0
  1 15  1  0
  3 16  1  0
  5 17  1  0
  6 18  1  0
  7 19  1  0
  8 20  1  0
 10 21  1  0
 12 22  1  0
 12 23  1  0
 12 24  1  0
M  END
>  <partial_charges>  (369) 
-0.0537000000477
-0.0706000030041
-0.120399996638
-0.0359999984503
-0.116899996996
-0.129099994898
-0.129099994898
-0.116899996996
-0.0359999984503
-0.120399996638
-0.0706000030041
-0.0535999983549
0.0443999990821
0.0443999990821
0.0443999990821
0.131400004029
0.131400004029
0.130700007081
0.130700007081
0.131400004029
0.131400004029
0.0443999990821
0.0443999990821
0.0443999990821

>  <partial_bond_orders>  (369) 
1.0
2.0
1.0
2.0
1.0
1.0
2.0
1.0
2.0
1.0
2.0
1.0
1.0
1.0
1.0
1.0
1.0
1.0
1.0
1.0
1.0
1.0
1.0
1.0
1.0

>  <atom_types>  (369) 
c3
ca
ca
ca
ca
ca
ca
ca
ca
ca
ca
c3
hc
hc
hc
ha
ha
ha
ha
ha
ha
hc
hc
hc

>  <target>  (369) 
-2.78

>  <cal>  (369) 
-2.953

$$$$
mobley_511661
     RDKit          3D

 10  9  0  0  0  0  0  0  0  0999 V2000
    0.2090    0.2290    1.0400 C   0  0  0  0  0  0  0  0  0  0  0  0
   -0.4860   -0.3690    2.0140 C   0  0  0  0  0  0  0  0  0  0  0  0
   -1.5320   -1.3320    1.7660 C   0  0  0  0  0  0  0  0  0  0  0  0
   -2.2270   -1.9300    2.7410 C   0  0  0  0  0  0  0  0  0  0  0  0
    0.0000    0.0000    0.0000 H   0  0  0  0  0  0  0  0  0  0  0  0
    0.0000    0.0000    0.0000 H   0  0  0  0  0  0  0  0  0  0  0  0
    0.0000    0.0000    0.0000 H   0  0  0  0  0  0  0  0  0  0  0  0
    0.0000    0.0000    0.0000 H   0  0  0  0  0  0  0  0  0  0  0  0
    0.0000    0.0000    0.0000 H   0  0  0  0  0  0  0  0  0  0  0  0
    0.0000    0.0000    0.0000 H   0  0  0  0  0  0  0  0  0  0  0  0
  1  2  2  3
  2  3  1  0
  3  4  2  3
  1  5  1  0
  1  6  1  0
  2  7  1  0
  3  8  1  0
  4  9  1  0
  4 10  1  0
M  END
>  <partial_charges>  (370) 
-0.208800002933
-0.136999994516
-0.136999994516
-0.208800002933
0.112199999392
0.112199999392
0.121399998665
0.121399998665
0.112199999392
0.112199999392

>  <partial_bond_orders>  (370) 
2.0
1.0
2.0
1.0
1.0
1.0
1.0
1.0
1.0

>  <atom_types>  (370) 
c2
ce
ce
c2
ha
ha
ha
ha
ha
ha

>  <target>  (370) 
0.56

>  <cal>  (370) 
1.955

$$$$
mobley_2771569
     RDKit          3D

 19 19  0  0  0  0  0  0  0  0999 V2000
   -0.1860   -2.0440    4.0770 C   0  0  0  0  0  0  0  0  0  0  0  0
   -0.4220   -2.1200    2.6360 N   0  0  0  0  0  0  0  0  0  0  0  0
   -0.0740   -0.8520    1.9820 C   0  0  0  0  0  0  0  0  0  0  0  0
   -0.3120   -0.9380    0.4730 C   0  0  0  0  0  0  0  0  0  0  0  0
    0.4340   -2.0440   -0.1320 N   0  0  0  0  0  0  0  0  0  0  0  0
    0.0900   -3.3040    0.5320 C   0  0  0  0  0  0  0  0  0  0  0  0
    0.3300   -3.2320    2.0420 C   0  0  0  0  0  0  0  0  0  0  0  0
    0.0000    0.0000    0.0000 H   0  0  0  0  0  0  0  0  0  0  0  0
    0.0000    0.0000    0.0000 H   0  0  0  0  0  0  0  0  0  0  0  0
    0.0000    0.0000    0.0000 H   0  0  0  0  0  0  0  0  0  0  0  0
    0.0000    0.0000    0.0000 H   0  0  0  0  0  0  0  0  0  0  0  0
    0.0000    0.0000    0.0000 H   0  0  0  0  0  0  0  0  0  0  0  0
    0.0000    0.0000    0.0000 H   0  0  0  0  0  0  0  0  0  0  0  0
    0.0000    0.0000    0.0000 H   0  0  0  0  0  0  0  0  0  0  0  0
    0.0000    0.0000    0.0000 H   0  0  0  0  0  0  0  0  0  0  0  0
    0.0000    0.0000    0.0000 H   0  0  0  0  0  0  0  0  0  0  0  0
    0.0000    0.0000    0.0000 H   0  0  0  0  0  0  0  0  0  0  0  0
    0.0000    0.0000    0.0000 H   0  0  0  0  0  0  0  0  0  0  0  0
    0.0000    0.0000    0.0000 H   0  0  0  0  0  0  0  0  0  0  0  0
  1  2  1  0
  2  7  1  0
  2  3  1  0
  3  4  1  0
  4  5  1  0
  5  6  1  0
  6  7  1  0
  1  8  1  0
  1  9  1  0
  1 10  1  0
  3 11  1  0
  3 12  1  0
  4 13  1  0
  4 14  1  0
  5 15  1  0
  6 16  1  0
  6 17  1  0
  7 18  1  0
  7 19  1  0
M  END
>  <partial_charges>  (371) 
0.152199998498
-0.723599970341
0.163499996066
0.161899998784
-0.819899976254
0.161899998784
0.163499996066
0.0322000011802
0.0322000011802
0.0322000011802
0.0370000004768
0.0370000004768
0.0333999991417
0.0333999991417
0.362399995327
0.0333999991417
0.0333999991417
0.0370000004768
0.0370000004768

>  <partial_bond_orders>  (371) 
1.0
1.0
1.0
1.0
1.0
1.0
1.0
1.0
1.0
1.0
1.0
1.0
1.0
1.0
1.0
1.0
1.0
1.0
1.0

>  <atom_types>  (371) 
c3
n3
c3
c3
n3
c3
c3
h1
h1
h1
h1
h1
h1
h1
hn
h1
h1
h1
h1

>  <target>  (371) 
-7.77

>  <cal>  (371) 
-8.173

$$$$
mobley_7913234
     RDKit          3D

 25 24  0  0  1  0  0  0  0  0999 V2000
    0.3900   -1.0210   -0.0850 C   0  0  0  0  0  0  0  0  0  0  0  0
   -0.5800   -2.0240    0.5200 C   0  0  0  0  0  0  0  0  0  0  0  0
   -1.9310   -1.9920   -0.1890 C   0  0  0  0  0  0  0  0  0  0  0  0
   -2.9050   -2.9950    0.4140 C   0  0  0  0  0  0  0  0  0  0  0  0
   -4.1380   -2.9160   -0.2880 O   0  0  0  0  0  0  0  0  0  0  0  0
   -5.0930   -3.8320    0.2300 C   0  0  0  0  0  0  0  0  0  0  0  0
   -6.3890   -3.6990   -0.5610 C   0  0  0  0  0  0  0  0  0  0  0  0
   -7.5610   -4.3270    0.1770 C   0  0  0  0  0  0  0  0  0  0  0  0
   -6.2200   -4.3670   -1.8110 O   0  0  0  0  0  0  0  0  0  0  0  0
    0.0000    0.0000    0.0000 H   0  0  0  0  0  0  0  0  0  0  0  0
    0.0000    0.0000    0.0000 H   0  0  0  0  0  0  0  0  0  0  0  0
    0.0000    0.0000    0.0000 H   0  0  0  0  0  0  0  0  0  0  0  0
    0.0000    0.0000    0.0000 H   0  0  0  0  0  0  0  0  0  0  0  0
    0.0000    0.0000    0.0000 H   0  0  0  0  0  0  0  0  0  0  0  0
    0.0000    0.0000    0.0000 H   0  0  0  0  0  0  0  0  0  0  0  0
    0.0000    0.0000    0.0000 H   0  0  0  0  0  0  0  0  0  0  0  0
    0.0000    0.0000    0.0000 H   0  0  0  0  0  0  0  0  0  0  0  0
    0.0000    0.0000    0.0000 H   0  0  0  0  0  0  0  0  0  0  0  0
    0.0000    0.0000    0.0000 H   0  0  0  0  0  0  0  0  0  0  0  0
    0.0000    0.0000    0.0000 H   0  0  0  0  0  0  0  0  0  0  0  0
    0.0000    0.0000    0.0000 H   0  0  0  0  0  0  0  0  0  0  0  0
    0.0000    0.0000    0.0000 H   0  0  0  0  0  0  0  0  0  0  0  0
    0.0000    0.0000    0.0000 H   0  0  0  0  0  0  0  0  0  0  0  0
    0.0000    0.0000    0.0000 H   0  0  0  0  0  0  0  0  0  0  0  0
    0.0000    0.0000    0.0000 H   0  0  0  0  0  0  0  0  0  0  0  0
  1  2  1  0
  2  3  1  0
  3  4  1  0
  4  5  1  0
  5  6  1  0
  6  7  1  0
  7  8  1  0
  7  9  1  0
  1 10  1  0
  1 11  1  0
  1 12  1  0
  2 13  1  0
  2 14  1  0
  3 15  1  0
  3 16  1  0
  4 17  1  0
  4 18  1  0
  6 19  1  0
  6 20  1  0
  7 21  1  0
  8 22  1  0
  8 23  1  0
  8 24  1  0
  9 25  1  0
M  END
>  <partial_charges>  (372) 
-0.0931999981403
-0.0772999972105
-0.0798999965191
0.130700007081
-0.427899986506
0.13220000267
0.140000000596
0.0450999997556
-0.12839999795
-0.606500029564
0.0315000005066
0.0315000005066
0.0315000005066
0.0467000007629
0.0467000007629
0.0474000014365
0.0474000014365
0.0297999996692
0.0297999996692
0.0395999997854
0.0395999997854
0.0465999990702
0.0465999990702
0.0465999990702
0.404000014067

>  <partial_bond_orders>  (372) 
1.0
1.0
1.0
1.0
1.0
1.0
1.0
1.0
1.0
1.0
1.0
1.0
1.0
1.0
1.0
1.0
1.0
1.0
1.0
1.0
1.0
1.0
1.0
1.0

>  <atom_types>  (372) 
c3
c3
c3
c3
os
c3
c3
h1
c3
oh
hc
hc
hc
hc
hc
hc
hc
h1
h1
h1
h1
hc
hc
hc
ho

>  <target>  (372) 
-5.73

>  <cal>  (372) 
-3.891

$$$$
mobley_5063386
     RDKit          3D

 15 15  0  0  0  0  0  0  0  0999 V2000
    1.8850   -1.0360   -0.1120 C   0  0  0  0  0  0  0  0  0  0  0  0
    2.9210   -1.6310    0.6080 C   0  0  0  0  0  0  0  0  0  0  0  0
    2.8780   -1.6520    2.0020 C   0  0  0  0  0  0  0  0  0  0  0  0
    1.8000   -1.0790    2.6760 C   0  0  0  0  0  0  0  0  0  0  0  0
    0.7640   -0.4840    1.9550 C   0  0  0  0  0  0  0  0  0  0  0  0
    0.8070   -0.4630    0.5610 C   0  0  0  0  0  0  0  0  0  0  0  0
   -0.3440    0.1050    2.6250 N   0  0  0  0  0  0  0  0  0  0  0  0
   -0.2860    1.3170    2.9410 O   0  0  0  0  0  0  0  0  0  0  0  0
   -1.3460   -0.6050    2.8790 O   0  0  0  0  0  0  0  0  0  0  0  0
    1.7800   -1.1120    4.0380 O   0  0  0  0  0  0  0  0  0  0  0  0
    0.0000    0.0000    0.0000 H   0  0  0  0  0  0  0  0  0  0  0  0
    0.0000    0.0000    0.0000 H   0  0  0  0  0  0  0  0  0  0  0  0
    0.0000    0.0000    0.0000 H   0  0  0  0  0  0  0  0  0  0  0  0
    0.0000    0.0000    0.0000 H   0  0  0  0  0  0  0  0  0  0  0  0
    0.0000    0.0000    0.0000 H   0  0  0  0  0  0  0  0  0  0  0  0
  1  6  2  0
  1  2  1  0
  2  3  2  0
  3  4  1  0
  4  5  2  0
  5  6  1  0
  5  7  1  0
  7  8  1  0
  7  9  1  0
  4 10  1  0
  1 11  1  0
  2 12  1  0
  3 13  1  0
  6 14  1  0
 10 15  1  0
M  CHG  2   8  -1   9  -1
M  END
>  <partial_charges>  (373) 
-0.161899998784
-0.0636999979615
-0.210700005293
0.176100000739
-0.18520000577
-0.0533000007272
0.322899997234
-0.191100001335
-0.191100001335
-0.479799985886
0.15039999783
0.144400000572
0.148300006986
0.159500002861
0.435299992561

>  <partial_bond_orders>  (373) 
2.0
1.0
2.0
1.0
2.0
1.0
1.0
1.0
1.0
1.0
1.0
1.0
1.0
1.0
1.0

>  <atom_types>  (373) 
ca
ca
ca
ca
ca
ca
no
o
o
oh
ha
ha
ha
ha
ho

>  <target>  (373) 
-4.58

>  <cal>  (373) 
-5.667

$$$$
mobley_4694328
     RDKit          3D

 25 24  0  0  0  0  0  0  0  0999 V2000
   -4.1340    1.3850    0.8000 C   0  0  0  0  0  0  0  0  0  0  0  0
   -3.2210    0.1740    0.9250 C   0  0  0  0  0  0  0  0  0  0  0  0
   -1.7960    0.5030    0.4780 C   0  0  0  0  0  0  0  0  0  0  0  0
   -0.8350   -0.6840    0.5850 C   0  0  0  0  0  0  0  0  0  0  0  0
    0.5910   -0.3550    0.1370 C   0  0  0  0  0  0  0  0  0  0  0  0
    1.5060   -1.5780    0.2660 C   0  0  0  0  0  0  0  0  0  0  0  0
    2.9380   -1.2840   -0.1740 C   0  0  0  0  0  0  0  0  0  0  0  0
    3.8710   -2.4670   -0.0610 C   0  0  0  0  0  0  0  0  0  0  0  0
    3.5490   -3.5790    0.3420 O   0  0  0  0  0  0  0  0  0  0  0  0
    0.0000    0.0000    0.0000 H   0  0  0  0  0  0  0  0  0  0  0  0
    0.0000    0.0000    0.0000 H   0  0  0  0  0  0  0  0  0  0  0  0
    0.0000    0.0000    0.0000 H   0  0  0  0  0  0  0  0  0  0  0  0
    0.0000    0.0000    0.0000 H   0  0  0  0  0  0  0  0  0  0  0  0
    0.0000    0.0000    0.0000 H   0  0  0  0  0  0  0  0  0  0  0  0
    0.0000    0.0000    0.0000 H   0  0  0  0  0  0  0  0  0  0  0  0
    0.0000    0.0000    0.0000 H   0  0  0  0  0  0  0  0  0  0  0  0
    0.0000    0.0000    0.0000 H   0  0  0  0  0  0  0  0  0  0  0  0
    0.0000    0.0000    0.0000 H   0  0  0  0  0  0  0  0  0  0  0  0
    0.0000    0.0000    0.0000 H   0  0  0  0  0  0  0  0  0  0  0  0
    0.0000    0.0000    0.0000 H   0  0  0  0  0  0  0  0  0  0  0  0
    0.0000    0.0000    0.0000 H   0  0  0  0  0  0  0  0  0  0  0  0
    0.0000    0.0000    0.0000 H   0  0  0  0  0  0  0  0  0  0  0  0
    0.0000    0.0000    0.0000 H   0  0  0  0  0  0  0  0  0  0  0  0
    0.0000    0.0000    0.0000 H   0  0  0  0  0  0  0  0  0  0  0  0
    0.0000    0.0000    0.0000 H   0  0  0  0  0  0  0  0  0  0  0  0
  1  2  1  0
  2  3  1  0
  3  4  1  0
  4  5  1  0
  5  6  1  0
  6  7  1  0
  7  8  1  0
  8  9  2  0
  1 10  1  0
  1 11  1  0
  1 12  1  0
  2 13  1  0
  2 14  1  0
  3 15  1  0
  3 16  1  0
  4 17  1  0
  4 18  1  0
  5 19  1  0
  5 20  1  0
  6 21  1  0
  6 22  1  0
  7 23  1  0
  7 24  1  0
  8 25  1  0
M  END
>  <partial_charges>  (374) 
-0.0920000001788
-0.0800999999046
-0.0794000029564
-0.0780000016093
-0.0771000012755
-0.0754000023007
-0.197300001979
0.562200009823
-0.524900019169
0.0329999998212
0.0329999998212
0.0329999998212
0.0388999991119
0.0388999991119
0.0379000008106
0.0379000008106
0.0416000001132
0.0416000001132
0.0377999991179
0.0377999991179
0.0540000014007
0.0540000014007
0.0661000013351
0.0661000013351
-0.0097000002861

>  <partial_bond_orders>  (374) 
1.0
1.0
1.0
1.0
1.0
1.0
1.0
2.0
1.0
1.0
1.0
1.0
1.0
1.0
1.0
1.0
1.0
1.0
1.0
1.0
1.0
1.0
1.0
1.0

>  <atom_types>  (374) 
c3
c3
c3
c3
c3
c3
c3
c
o
hc
hc
hc
hc
hc
hc
hc
hc
hc
hc
hc
hc
hc
hc
hc
h4

>  <target>  (374) 
-2.29

>  <cal>  (374) 
-2.57

$$$$
mobley_4934872
     RDKit          3D

 30 30  0  0  0  0  0  0  0  0999 V2000
    1.8750    0.7030    0.6560 C   0  0  0  0  0  0  0  0  0  0  0  0
    0.3670    0.6220    0.7620 C   0  0  0  0  0  0  0  0  0  0  0  0
   -0.1710    1.9380    0.7370 O   0  0  0  0  0  0  0  0  0  0  0  0
   -1.6090    1.9690    0.8330 C   0  0  0  0  0  0  0  0  0  0  0  0
   -2.2390    1.2640   -0.2460 O   0  0  0  0  0  0  0  0  0  0  0  0
   -2.2960    2.0350   -1.4390 C   0  0  0  0  0  0  0  0  0  0  0  0
   -2.9730    1.2190   -2.5190 C   0  0  0  0  0  0  0  0  0  0  0  0
   -2.0310    1.4740    2.1150 O   0  0  0  0  0  0  0  0  0  0  0  0
   -3.3710    1.4280    2.3910 C   0  0  0  0  0  0  0  0  0  0  0  0
   -4.2350    2.3560    1.8080 C   0  0  0  0  0  0  0  0  0  0  0  0
   -5.6010    2.3090    2.0890 C   0  0  0  0  0  0  0  0  0  0  0  0
   -6.1020    1.3350    2.9520 C   0  0  0  0  0  0  0  0  0  0  0  0
   -5.2390    0.4070    3.5340 C   0  0  0  0  0  0  0  0  0  0  0  0
   -3.8730    0.4540    3.2540 C   0  0  0  0  0  0  0  0  0  0  0  0
    0.0000    0.0000    0.0000 H   0  0  0  0  0  0  0  0  0  0  0  0
    0.0000    0.0000    0.0000 H   0  0  0  0  0  0  0  0  0  0  0  0
    0.0000    0.0000    0.0000 H   0  0  0  0  0  0  0  0  0  0  0  0
    0.0000    0.0000    0.0000 H   0  0  0  0  0  0  0  0  0  0  0  0
    0.0000    0.0000    0.0000 H   0  0  0  0  0  0  0  0  0  0  0  0
    0.0000    0.0000    0.0000 H   0  0  0  0  0  0  0  0  0  0  0  0
    0.0000    0.0000    0.0000 H   0  0  0  0  0  0  0  0  0  0  0  0
    0.0000    0.0000    0.0000 H   0  0  0  0  0  0  0  0  0  0  0  0
    0.0000    0.0000    0.0000 H   0  0  0  0  0  0  0  0  0  0  0  0
    0.0000    0.0000    0.0000 H   0  0  0  0  0  0  0  0  0  0  0  0
    0.0000    0.0000    0.0000 H   0  0  0  0  0  0  0  0  0  0  0  0
    0.0000    0.0000    0.0000 H   0  0  0  0  0  0  0  0  0  0  0  0
    0.0000    0.0000    0.0000 H   0  0  0  0  0  0  0  0  0  0  0  0
    0.0000    0.0000    0.0000 H   0  0  0  0  0  0  0  0  0  0  0  0
    0.0000    0.0000    0.0000 H   0  0  0  0  0  0  0  0  0  0  0  0
    0.0000    0.0000    0.0000 H   0  0  0  0  0  0  0  0  0  0  0  0
  1  2  1  0
  2  3  1  0
  3  4  1  0
  4  5  1  0
  5  6  1  0
  6  7  1  0
  4  8  1  0
  8  9  1  0
  9 14  2  0
  9 10  1  0
 10 11  2  0
 11 12  1  0
 12 13  2  0
 13 14  1  0
  1 15  1  0
  1 16  1  0
  1 17  1  0
  2 18  1  0
  2 19  1  0
  4 20  1  0
  6 21  1  0
  6 22  1  0
  7 23  1  0
  7 24  1  0
  7 25  1  0
 10 26  1  0
 11 27  1  0
 12 28  1  0
 13 29  1  0
 14 30  1  0
M  END
>  <partial_charges>  (375) 
-0.110699996352
0.140499994159
-0.44240000844
0.509500026703
-0.44240000844
0.140499994159
-0.110699996352
-0.344599992037
0.10000000149
-0.148000001907
-0.115500003099
-0.141499996185
-0.115500003099
-0.148000001907
0.0485000014305
0.0485000014305
0.0485000014305
0.0373000018299
0.0373000018299
0.0938000008464
0.0373000018299
0.0373000018299
0.0485000014305
0.0485000014305
0.0485000014305
0.146300002933
0.134399995208
0.133200004697
0.134399995208
0.146300002933

>  <partial_bond_orders>  (375) 
1.0
1.0
1.0
1.0
1.0
1.0
1.0
1.0
2.0
1.0
2.0
1.0
2.0
1.0
1.0
1.0
1.0
1.0
1.0
1.0
1.0
1.0
1.0
1.0
1.0
1.0
1.0
1.0
1.0
1.0

>  <atom_types>  (375) 
c3
c3
os
c3
os
c3
c3
os
ca
ca
ca
ca
ca
ca
hc
hc
hc
h1
h1
h3
h1
h1
hc
hc
hc
ha
ha
ha
ha
ha

>  <target>  (375) 
-5.23

>  <cal>  (375) 
-5.203

$$$$
mobley_8467917
     RDKit          3D

 21 20  0  0  0  0  0  0  0  0999 V2000
    2.5440   -2.3090    4.0250 C   0  0  0  0  0  0  0  0  0  0  0  0
    2.7860   -2.0760    2.5420 C   0  0  0  0  0  0  0  0  0  0  0  0
    1.8090   -1.0430    1.9740 C   0  0  0  0  0  0  0  0  0  0  0  0
    2.0180   -0.7780    0.4790 C   0  0  0  0  0  0  0  0  0  0  0  0
    1.0590    0.2350   -0.0760 C   0  0  0  0  0  0  0  0  0  0  0  0
    1.4390    1.3900   -0.6420 C   0  0  0  0  0  0  0  0  0  0  0  0
    0.4860    2.3960   -1.1970 C   0  0  0  0  0  0  0  0  0  0  0  0
    0.0000    0.0000    0.0000 H   0  0  0  0  0  0  0  0  0  0  0  0
    0.0000    0.0000    0.0000 H   0  0  0  0  0  0  0  0  0  0  0  0
    0.0000    0.0000    0.0000 H   0  0  0  0  0  0  0  0  0  0  0  0
    0.0000    0.0000    0.0000 H   0  0  0  0  0  0  0  0  0  0  0  0
    0.0000    0.0000    0.0000 H   0  0  0  0  0  0  0  0  0  0  0  0
    0.0000    0.0000    0.0000 H   0  0  0  0  0  0  0  0  0  0  0  0
    0.0000    0.0000    0.0000 H   0  0  0  0  0  0  0  0  0  0  0  0
    0.0000    0.0000    0.0000 H   0  0  0  0  0  0  0  0  0  0  0  0
    0.0000    0.0000    0.0000 H   0  0  0  0  0  0  0  0  0  0  0  0
    0.0000    0.0000    0.0000 H   0  0  0  0  0  0  0  0  0  0  0  0
    0.0000    0.0000    0.0000 H   0  0  0  0  0  0  0  0  0  0  0  0
    0.0000    0.0000    0.0000 H   0  0  0  0  0  0  0  0  0  0  0  0
    0.0000    0.0000    0.0000 H   0  0  0  0  0  0  0  0  0  0  0  0
    0.0000    0.0000    0.0000 H   0  0  0  0  0  0  0  0  0  0  0  0
  1  2  1  0
  2  3  1  0
  3  4  1  0
  4  5  1  0
  5  6  2  0
  6  7  1  0
  1  8  1  0
  1  9  1  0
  1 10  1  0
  2 11  1  0
  2 12  1  0
  3 13  1  0
  3 14  1  0
  4 15  1  0
  4 16  1  0
  5 17  1  0
  6 18  1  0
  7 19  1  0
  7 20  1  0
  7 21  1  0
M  END
>  <partial_charges>  (376) 
-0.0921000018716
-0.0799999982119
-0.0763999968767
-0.0487999990582
-0.169799998403
-0.168699994683
-0.0654999986291
0.0331999994814
0.0331999994814
0.0331999994814
0.0381999984384
0.0381999984384
0.0405000001192
0.0405000001192
0.0436000004411
0.0436000004411
0.11930000037
0.11819999665
0.0397999994457
0.0397999994457
0.0397999994457

>  <partial_bond_orders>  (376) 
1.0
1.0
1.0
1.0
2.0
1.0
1.0
1.0
1.0
1.0
1.0
1.0
1.0
1.0
1.0
1.0
1.0
1.0
1.0
1.0

>  <atom_types>  (376) 
c3
c3
c3
c3
c2
c2
c3
hc
hc
hc
hc
hc
hc
hc
hc
hc
ha
ha
hc
hc
hc

>  <target>  (376) 
1.68

>  <cal>  (376) 
2.78

$$$$
mobley_5371840
     RDKit          3D

 22 24  0  0  0  0  0  0  0  0999 V2000
   -1.8580    0.7400    0.8000 C   0  0  0  0  0  0  0  0  0  0  0  0
   -1.0040   -0.2570    0.3260 C   0  0  0  0  0  0  0  0  0  0  0  0
   -1.4370   -1.5820    0.2690 C   0  0  0  0  0  0  0  0  0  0  0  0
   -2.7270   -1.9050    0.6890 C   0  0  0  0  0  0  0  0  0  0  0  0
   -3.5800   -0.9100    1.1630 C   0  0  0  0  0  0  0  0  0  0  0  0
   -3.1490    0.4150    1.2200 C   0  0  0  0  0  0  0  0  0  0  0  0
   -4.8560   -1.1830    1.5850 O   0  0  0  0  0  0  0  0  0  0  0  0
   -5.2390   -2.4980    1.5120 C   0  0  0  0  0  0  0  0  0  0  0  0
   -6.5290   -2.8210    1.9320 C   0  0  0  0  0  0  0  0  0  0  0  0
   -6.9620   -4.1460    1.8750 C   0  0  0  0  0  0  0  0  0  0  0  0
   -6.1070   -5.1430    1.4010 C   0  0  0  0  0  0  0  0  0  0  0  0
   -4.8170   -4.8180    0.9820 C   0  0  0  0  0  0  0  0  0  0  0  0
   -4.3860   -3.4940    1.0380 C   0  0  0  0  0  0  0  0  0  0  0  0
   -3.1090   -3.2200    0.6160 O   0  0  0  0  0  0  0  0  0  0  0  0
   -6.6470   -6.7760    1.3330 Cl  0  0  0  0  0  0  0  0  0  0  0  0
    0.0000    0.0000    0.0000 H   0  0  0  0  0  0  0  0  0  0  0  0
    0.0000    0.0000    0.0000 H   0  0  0  0  0  0  0  0  0  0  0  0
    0.0000    0.0000    0.0000 H   0  0  0  0  0  0  0  0  0  0  0  0
    0.0000    0.0000    0.0000 H   0  0  0  0  0  0  0  0  0  0  0  0
    0.0000    0.0000    0.0000 H   0  0  0  0  0  0  0  0  0  0  0  0
    0.0000    0.0000    0.0000 H   0  0  0  0  0  0  0  0  0  0  0  0
    0.0000    0.0000    0.0000 H   0  0  0  0  0  0  0  0  0  0  0  0
  1  6  2  0
  1  2  1  0
  2  3  2  0
  3  4  1  0
  4 14  1  0
  4  5  2  0
  5  6  1  0
  5  7  1  0
  7  8  1  0
  8 13  2  0
  8  9  1  0
  9 10  2  0
 10 11  1  0
 11 12  2  0
 12 13  1  0
 13 14  1  0
 11 15  1  0
  1 16  1  0
  2 17  1  0
  3 18  1  0
  6 19  1  0
  9 20  1  0
 10 21  1  0
 12 22  1  0
M  END
>  <partial_charges>  (377) 
-0.126000002027
-0.126399993896
-0.114200003445
0.0608999989927
0.0619999989867
-0.115099996328
-0.222000002861
0.0640000030398
-0.109800003469
-0.122500002384
0.017899999395
-0.114200003445
0.0728000029922
-0.221499994397
-0.0825999975204
0.140699997544
0.140799999237
0.156100004911
0.155599996448
0.159899994731
0.154400005937
0.169200003147

>  <partial_bond_orders>  (377) 
2.0
1.0
2.0
1.0
1.0
2.0
1.0
1.0
1.0
2.0
1.0
2.0
1.0
2.0
1.0
1.0
1.0
1.0
1.0
1.0
1.0
1.0
1.0
1.0

>  <atom_types>  (377) 
ca
ca
ca
ca
ca
ca
os
ca
ca
ca
ca
ca
ca
os
cl
ha
ha
ha
ha
ha
ha
ha

>  <target>  (377) 
-3.1

>  <cal>  (377) 
-4.054

$$$$
mobley_6978427
     RDKit          3D

 24 24  0  0  0  0  0  0  0  0999 V2000
    0.5120    0.8260    1.2900 C   0  0  0  0  0  0  0  0  0  0  0  0
    0.2960   -0.4210    0.6210 O   0  0  0  0  0  0  0  0  0  0  0  0
    0.7300   -0.4750   -0.6710 C   0  0  0  0  0  0  0  0  0  0  0  0
    1.2740    0.4270   -1.2930 O   0  0  0  0  0  0  0  0  0  0  0  0
    0.4390   -1.8330   -1.2410 C   0  0  0  0  0  0  0  0  0  0  0  0
    1.0890   -2.9170   -0.3780 C   0  0  0  0  0  0  0  0  0  0  0  0
    2.5980   -3.0260   -0.5900 C   0  0  0  0  0  0  0  0  0  0  0  0
    2.9490   -3.1870   -2.0640 C   0  0  0  0  0  0  0  0  0  0  0  0
    2.3700   -2.0530   -2.9020 C   0  0  0  0  0  0  0  0  0  0  0  0
    0.8600   -1.9150   -2.7090 C   0  0  0  0  0  0  0  0  0  0  0  0
    0.0000    0.0000    0.0000 H   0  0  0  0  0  0  0  0  0  0  0  0
    0.0000    0.0000    0.0000 H   0  0  0  0  0  0  0  0  0  0  0  0
    0.0000    0.0000    0.0000 H   0  0  0  0  0  0  0  0  0  0  0  0
    0.0000    0.0000    0.0000 H   0  0  0  0  0  0  0  0  0  0  0  0
    0.0000    0.0000    0.0000 H   0  0  0  0  0  0  0  0  0  0  0  0
    0.0000    0.0000    0.0000 H   0  0  0  0  0  0  0  0  0  0  0  0
    0.0000    0.0000    0.0000 H   0  0  0  0  0  0  0  0  0  0  0  0
    0.0000    0.0000    0.0000 H   0  0  0  0  0  0  0  0  0  0  0  0
    0.0000    0.0000    0.0000 H   0  0  0  0  0  0  0  0  0  0  0  0
    0.0000    0.0000    0.0000 H   0  0  0  0  0  0  0  0  0  0  0  0
    0.0000    0.0000    0.0000 H   0  0  0  0  0  0  0  0  0  0  0  0
    0.0000    0.0000    0.0000 H   0  0  0  0  0  0  0  0  0  0  0  0
    0.0000    0.0000    0.0000 H   0  0  0  0  0  0  0  0  0  0  0  0
    0.0000    0.0000    0.0000 H   0  0  0  0  0  0  0  0  0  0  0  0
  1  2  1  0
  2  3  1  0
  3  4  2  0
  3  5  1  0
  5 10  1  0
  5  6  1  0
  6  7  1  0
  7  8  1  0
  8  9  1  0
  9 10  1  0
  1 11  1  0
  1 12  1  0
  1 13  1  0
  5 14  1  0
  6 15  1  0
  6 16  1  0
  7 17  1  0
  7 18  1  0
  8 19  1  0
  8 20  1  0
  9 21  1  0
  9 22  1  0
 10 23  1  0
 10 24  1  0
M  END
>  <partial_charges>  (378) 
0.126000002027
-0.450500011444
0.635900020599
-0.533599972725
-0.105400003493
-0.0715999975801
-0.0815000012517
-0.0789000019431
-0.0815000012517
-0.0715999975801
0.048599999398
0.048599999398
0.048599999398
0.0778999999166
0.0527999997139
0.0527999997139
0.0489999987185
0.0489999987185
0.0408000014722
0.0408000014722
0.0489999987185
0.0489999987185
0.0527999997139
0.0527999997139

>  <partial_bond_orders>  (378) 
1.0
1.0
2.0
1.0
1.0
1.0
1.0
1.0
1.0
1.0
1.0
1.0
1.0
1.0
1.0
1.0
1.0
1.0
1.0
1.0
1.0
1.0
1.0
1.0

>  <atom_types>  (378) 
c3
os
c
o
c3
c3
c3
c3
c3
c3
h1
h1
h1
hc
hc
hc
hc
hc
hc
hc
hc
hc
hc
hc

>  <target>  (378) 
-3.3

>  <cal>  (378) 
-4.376

$$$$
mobley_8883511
     RDKit          3D

 17 17  0  0  0  0  0  0  0  0999 V2000
    1.9570   -1.0270   -1.6040 C   0  0  0  0  0  0  0  0  0  0  0  0
    1.8850   -1.0360   -0.1120 C   0  0  0  0  0  0  0  0  0  0  0  0
    2.9210   -1.6310    0.6080 C   0  0  0  0  0  0  0  0  0  0  0  0
    2.8780   -1.6520    2.0020 C   0  0  0  0  0  0  0  0  0  0  0  0
    1.8000   -1.0790    2.6760 C   0  0  0  0  0  0  0  0  0  0  0  0
    0.7640   -0.4840    1.9550 C   0  0  0  0  0  0  0  0  0  0  0  0
    0.8070   -0.4630    0.5610 C   0  0  0  0  0  0  0  0  0  0  0  0
   -0.2880    0.1650   -0.1670 C   0  0  0  0  0  0  0  0  0  0  0  0
   -1.4450    0.1990    0.2580 O   0  0  0  0  0  0  0  0  0  0  0  0
    0.0000    0.0000    0.0000 H   0  0  0  0  0  0  0  0  0  0  0  0
    0.0000    0.0000    0.0000 H   0  0  0  0  0  0  0  0  0  0  0  0
    0.0000    0.0000    0.0000 H   0  0  0  0  0  0  0  0  0  0  0  0
    0.0000    0.0000    0.0000 H   0  0  0  0  0  0  0  0  0  0  0  0
    0.0000    0.0000    0.0000 H   0  0  0  0  0  0  0  0  0  0  0  0
    0.0000    0.0000    0.0000 H   0  0  0  0  0  0  0  0  0  0  0  0
    0.0000    0.0000    0.0000 H   0  0  0  0  0  0  0  0  0  0  0  0
    0.0000    0.0000    0.0000 H   0  0  0  0  0  0  0  0  0  0  0  0
  1  2  1  0
  2  7  2  0
  2  3  1  0
  3  4  2  0
  4  5  1  0
  5  6  2  0
  6  7  1  0
  7  8  1  0
  8  9  2  0
  1 10  1  0
  1 11  1  0
  1 12  1  0
  3 13  1  0
  4 14  1  0
  5 15  1  0
  6 16  1  0
  8 17  1  0
M  END
>  <partial_charges>  (379) 
-0.0648000016809
-0.0337999984622
-0.144999995828
-0.0988000035286
-0.146699994802
-0.0732999965549
-0.193599998951
0.575100004673
-0.525399982929
0.0496000014246
0.0496000014246
0.0496000014246
0.135499998927
0.134800001979
0.137400001287
0.150199994445
-0.000300000014249

>  <partial_bond_orders>  (379) 
1.0
2.0
1.0
2.0
1.0
2.0
1.0
1.0
2.0
1.0
1.0
1.0
1.0
1.0
1.0
1.0
1.0

>  <atom_types>  (379) 
c3
ca
ca
ca
ca
ca
ca
c
o
hc
hc
hc
ha
ha
ha
ha
h4

>  <target>  (379) 
-3.93

>  <cal>  (379) 
-4.554

$$$$
mobley_5600967
     RDKit          3D

 26 26  0  0  0  0  0  0  0  0999 V2000
    1.0790   -0.1520   -0.2190 C   0  0  0  0  0  0  0  0  0  0  0  0
    1.5170    0.5280   -1.4290 N   0  0  0  0  0  0  0  0  0  0  0  0
    1.0590   -0.0590   -2.6860 C   0  0  0  0  0  0  0  0  0  0  0  0
    2.3230    1.6660   -1.3230 C   0  0  0  0  0  0  0  0  0  0  0  0
    2.7130    2.1680   -0.2700 O   0  0  0  0  0  0  0  0  0  0  0  0
    2.7670    2.3260   -2.5620 C   0  0  0  0  0  0  0  0  0  0  0  0
    3.9630    1.9420   -3.1670 C   0  0  0  0  0  0  0  0  0  0  0  0
    4.3830    2.5670   -4.3410 C   0  0  0  0  0  0  0  0  0  0  0  0
    3.6070    3.5760   -4.9100 C   0  0  0  0  0  0  0  0  0  0  0  0
    2.4100    3.9610   -4.3040 C   0  0  0  0  0  0  0  0  0  0  0  0
    1.9900    3.3350   -3.1300 C   0  0  0  0  0  0  0  0  0  0  0  0
    4.0160    4.1870   -6.0550 O   0  0  0  0  0  0  0  0  0  0  0  0
    5.2490    3.7460   -6.6220 C   0  0  0  0  0  0  0  0  0  0  0  0
    0.0000    0.0000    0.0000 H   0  0  0  0  0  0  0  0  0  0  0  0
    0.0000    0.0000    0.0000 H   0  0  0  0  0  0  0  0  0  0  0  0
    0.0000    0.0000    0.0000 H   0  0  0  0  0  0  0  0  0  0  0  0
    0.0000    0.0000    0.0000 H   0  0  0  0  0  0  0  0  0  0  0  0
    0.0000    0.0000    0.0000 H   0  0  0  0  0  0  0  0  0  0  0  0
    0.0000    0.0000    0.0000 H   0  0  0  0  0  0  0  0  0  0  0  0
    0.0000    0.0000    0.0000 H   0  0  0  0  0  0  0  0  0  0  0  0
    0.0000    0.0000    0.0000 H   0  0  0  0  0  0  0  0  0  0  0  0
    0.0000    0.0000    0.0000 H   0  0  0  0  0  0  0  0  0  0  0  0
    0.0000    0.0000    0.0000 H   0  0  0  0  0  0  0  0  0  0  0  0
    0.0000    0.0000    0.0000 H   0  0  0  0  0  0  0  0  0  0  0  0
    0.0000    0.0000    0.0000 H   0  0  0  0  0  0  0  0  0  0  0  0
    0.0000    0.0000    0.0000 H   0  0  0  0  0  0  0  0  0  0  0  0
  1  2  1  0
  2  3  1  0
  2  4  1  0
  4  5  2  0
  4  6  1  0
  6 11  2  0
  6  7  1  0
  7  8  2  0
  8  9  1  0
  9 10  2  0
 10 11  1  0
  9 12  1  0
 12 13  1  0
  1 14  1  0
  1 15  1  0
  1 16  1  0
  3 17  1  0
  3 18  1  0
  3 19  1  0
  7 20  1  0
  8 21  1  0
 10 22  1  0
 11 23  1  0
 13 24  1  0
 13 25  1  0
 13 26  1  0
M  END
>  <partial_charges>  (380) 
0.0829000025988
-0.481799989939
0.0829000025988
0.675300002098
-0.594099998474
-0.164499998093
-0.0666000023484
-0.184200003743
0.136399999261
-0.184200003743
-0.0666000023484
-0.324499994516
0.111500002444
0.0423000007868
0.0423000007868
0.0423000007868
0.0423000007868
0.0423000007868
0.0423000007868
0.144099995494
0.147499993443
0.147499993443
0.144099995494
0.0467999987304
0.0467999987304
0.0467999987304

>  <partial_bond_orders>  (380) 
1.0
1.0
1.0
2.0
1.0
2.0
1.0
2.0
1.0
2.0
1.0
1.0
1.0
1.0
1.0
1.0
1.0
1.0
1.0
1.0
1.0
1.0
1.0
1.0
1.0
1.0

>  <atom_types>  (380) 
c3
n
c3
c
o
ca
ca
ca
ca
ca
ca
os
c3
h1
h1
h1
h1
h1
h1
ha
ha
ha
ha
h1
h1
h1

>  <target>  (380) 
-11.01

>  <cal>  (380) 
-9.625

$$$$
mobley_2328633
     RDKit          3D

 30 30  0  0  0  0  0  0  0  0999 V2000
    1.6440    1.0190   -8.5870 C   0  0  0  0  0  0  0  0  0  0  0  0
    1.0970    1.2150   -7.1820 C   0  0  0  0  0  0  0  0  0  0  0  0
    1.1190   -0.0900   -6.3860 C   0  0  0  0  0  0  0  0  0  0  0  0
    0.5690    0.1110   -4.9730 C   0  0  0  0  0  0  0  0  0  0  0  0
    0.5910   -1.1930   -4.1770 C   0  0  0  0  0  0  0  0  0  0  0  0
    0.0450   -0.9980   -2.7730 C   0  0  0  0  0  0  0  0  0  0  0  0
   -1.4280   -0.6010   -2.7510 C   0  0  0  0  0  0  0  0  0  0  0  0
   -1.8730   -0.9060   -1.3240 C   0  0  0  0  0  0  0  0  0  0  0  0
   -0.9150   -1.9770   -0.8000 C   0  0  0  0  0  0  0  0  0  0  0  0
    0.0490   -2.2780   -1.9430 C   0  0  0  0  0  0  0  0  0  0  0  0
    0.0000    0.0000    0.0000 H   0  0  0  0  0  0  0  0  0  0  0  0
    0.0000    0.0000    0.0000 H   0  0  0  0  0  0  0  0  0  0  0  0
    0.0000    0.0000    0.0000 H   0  0  0  0  0  0  0  0  0  0  0  0
    0.0000    0.0000    0.0000 H   0  0  0  0  0  0  0  0  0  0  0  0
    0.0000    0.0000    0.0000 H   0  0  0  0  0  0  0  0  0  0  0  0
    0.0000    0.0000    0.0000 H   0  0  0  0  0  0  0  0  0  0  0  0
    0.0000    0.0000    0.0000 H   0  0  0  0  0  0  0  0  0  0  0  0
    0.0000    0.0000    0.0000 H   0  0  0  0  0  0  0  0  0  0  0  0
    0.0000    0.0000    0.0000 H   0  0  0  0  0  0  0  0  0  0  0  0
    0.0000    0.0000    0.0000 H   0  0  0  0  0  0  0  0  0  0  0  0
    0.0000    0.0000    0.0000 H   0  0  0  0  0  0  0  0  0  0  0  0
    0.0000    0.0000    0.0000 H   0  0  0  0  0  0  0  0  0  0  0  0
    0.0000    0.0000    0.0000 H   0  0  0  0  0  0  0  0  0  0  0  0
    0.0000    0.0000    0.0000 H   0  0  0  0  0  0  0  0  0  0  0  0
    0.0000    0.0000    0.0000 H   0  0  0  0  0  0  0  0  0  0  0  0
    0.0000    0.0000    0.0000 H   0  0  0  0  0  0  0  0  0  0  0  0
    0.0000    0.0000    0.0000 H   0  0  0  0  0  0  0  0  0  0  0  0
    0.0000    0.0000    0.0000 H   0  0  0  0  0  0  0  0  0  0  0  0
    0.0000    0.0000    0.0000 H   0  0  0  0  0  0  0  0  0  0  0  0
    0.0000    0.0000    0.0000 H   0  0  0  0  0  0  0  0  0  0  0  0
  1  2  1  0
  2  3  1  0
  3  4  1  0
  4  5  1  0
  5  6  1  0
  6 10  1  0
  6  7  1  0
  7  8  1  0
  8  9  1  0
  9 10  1  0
  1 11  1  0
  1 12  1  0
  1 13  1  0
  2 14  1  0
  2 15  1  0
  3 16  1  0
  3 17  1  0
  4 18  1  0
  4 19  1  0
  5 20  1  0
  5 21  1  0
  6 22  1  0
  7 23  1  0
  7 24  1  0
  8 25  1  0
  8 26  1  0
  9 27  1  0
  9 28  1  0
 10 29  1  0
 10 30  1  0
M  END
>  <partial_charges>  (381) 
-0.0927999988198
-0.0798000022769
-0.0791999995708
-0.0803000032902
-0.0702999979258
-0.0689999982715
-0.07689999789
-0.0797000005841
-0.0797000005841
-0.07689999789
0.0322999991477
0.0322999991477
0.0322999991477
0.0386000014842
0.0386000014842
0.0394000001252
0.0394000001252
0.0397000014782
0.0397000014782
0.0408000014722
0.0408000014722
0.0465999990702
0.0416000001132
0.0416000001132
0.0394000001252
0.0394000001252
0.0394000001252
0.0394000001252
0.0416000001132
0.0416000001132

>  <partial_bond_orders>  (381) 
1.0
1.0
1.0
1.0
1.0
1.0
1.0
1.0
1.0
1.0
1.0
1.0
1.0
1.0
1.0
1.0
1.0
1.0
1.0
1.0
1.0
1.0
1.0
1.0
1.0
1.0
1.0
1.0
1.0
1.0

>  <atom_types>  (381) 
c3
c3
c3
c3
c3
c3
c3
c3
c3
c3
hc
hc
hc
hc
hc
hc
hc
hc
hc
hc
hc
hc
hc
hc
hc
hc
hc
hc
hc
hc

>  <target>  (381) 
2.55

>  <cal>  (381) 
2.381

$$$$
mobley_2489709
     RDKit          3D

 12 12  0  0  0  0  0  0  0  0999 V2000
    1.8850   -1.0360   -0.1120 C   0  0  0  0  0  0  0  0  0  0  0  0
    2.9210   -1.6310    0.6080 C   0  0  0  0  0  0  0  0  0  0  0  0
    2.8780   -1.6520    2.0020 C   0  0  0  0  0  0  0  0  0  0  0  0
    1.8000   -1.0790    2.6760 C   0  0  0  0  0  0  0  0  0  0  0  0
    0.7640   -0.4840    1.9550 C   0  0  0  0  0  0  0  0  0  0  0  0
    0.8070   -0.4630    0.5610 C   0  0  0  0  0  0  0  0  0  0  0  0
   -0.5990    0.2430    2.7320 Cl  0  0  0  0  0  0  0  0  0  0  0  0
    1.8040   -1.1370    4.4030 Cl  0  0  0  0  0  0  0  0  0  0  0  0
    0.0000    0.0000    0.0000 H   0  0  0  0  0  0  0  0  0  0  0  0
    0.0000    0.0000    0.0000 H   0  0  0  0  0  0  0  0  0  0  0  0
    0.0000    0.0000    0.0000 H   0  0  0  0  0  0  0  0  0  0  0  0
    0.0000    0.0000    0.0000 H   0  0  0  0  0  0  0  0  0  0  0  0
  1  6  2  0
  1  2  1  0
  2  3  2  0
  3  4  1  0
  4  5  2  0
  5  6  1  0
  5  7  1  0
  4  8  1  0
  1  9  1  0
  2 10  1  0
  3 11  1  0
  6 12  1  0
M  END
>  <partial_charges>  (382) 
-0.121399998665
-0.121299996972
-0.117700003088
0.0175000000745
0.0175000000745
-0.117700003088
-0.0703999996185
-0.0703999996185
0.141000002623
0.141000002623
0.150900006294
0.150900006294

>  <partial_bond_orders>  (382) 
2.0
1.0
2.0
1.0
2.0
1.0
1.0
1.0
1.0
1.0
1.0
1.0

>  <atom_types>  (382) 
ca
ca
ca
ca
ca
ca
cl
cl
ha
ha
ha
ha

>  <target>  (382) 
-1.36

>  <cal>  (382) 
-0.553

$$$$
mobley_5393242
     RDKit          3D

 40 40  0  0  0  0  0  0  0  0999 V2000
   -4.1330    1.7910   -0.4520 C   0  0  0  0  0  0  0  0  0  0  0  0
   -2.9950    0.7930   -0.4330 C   0  0  0  0  0  0  0  0  0  0  0  0
   -2.4740    0.6620   -1.7460 O   0  0  0  0  0  0  0  0  0  0  0  0
   -1.2320   -0.3520   -2.0280 P   0  0  0  0  0  0  0  0  0  0  0  0
   -1.5520   -2.2290   -1.6030 S   0  0  0  0  0  0  0  0  0  0  0  0
   -0.0320    0.4000   -1.2270 O   0  0  0  0  0  0  0  0  0  0  0  0
    1.3180    0.1050   -1.5420 C   0  0  0  0  0  0  0  0  0  0  0  0
    2.2260    0.9350   -0.6590 C   0  0  0  0  0  0  0  0  0  0  0  0
   -0.8840    0.0040   -3.5710 O   0  0  0  0  0  0  0  0  0  0  0  0
   -1.7270   -0.1140   -4.6430 C   0  0  0  0  0  0  0  0  0  0  0  0
   -1.2720    0.2330   -5.8980 C   0  0  0  0  0  0  0  0  0  0  0  0
   -2.1820    0.0860   -6.9250 C   0  0  0  0  0  0  0  0  0  0  0  0
   -3.4420   -0.3650   -6.7520 N   0  0  0  0  0  0  0  0  0  0  0  0
   -3.7660   -0.6700   -5.4810 C   0  0  0  0  0  0  0  0  0  0  0  0
   -2.9730   -0.5710   -4.3970 N   0  0  0  0  0  0  0  0  0  0  0  0
   -5.1500   -1.1730   -5.2490 C   0  0  0  0  0  0  0  0  0  0  0  0
   -5.9480   -0.2760   -4.2830 C   0  0  0  0  0  0  0  0  0  0  0  0
   -5.1730   -2.6290   -4.7480 C   0  0  0  0  0  0  0  0  0  0  0  0
   -1.7810    0.4360   -8.3190 C   0  0  0  0  0  0  0  0  0  0  0  0
    0.0000    0.0000    0.0000 H   0  0  0  0  0  0  0  0  0  0  0  0
    0.0000    0.0000    0.0000 H   0  0  0  0  0  0  0  0  0  0  0  0
    0.0000    0.0000    0.0000 H   0  0  0  0  0  0  0  0  0  0  0  0
    0.0000    0.0000    0.0000 H   0  0  0  0  0  0  0  0  0  0  0  0
    0.0000    0.0000    0.0000 H   0  0  0  0  0  0  0  0  0  0  0  0
    0.0000    0.0000    0.0000 H   0  0  0  0  0  0  0  0  0  0  0  0
    0.0000    0.0000    0.0000 H   0  0  0  0  0  0  0  0  0  0  0  0
    0.0000    0.0000    0.0000 H   0  0  0  0  0  0  0  0  0  0  0  0
    0.0000    0.0000    0.0000 H   0  0  0  0  0  0  0  0  0  0  0  0
    0.0000    0.0000    0.0000 H   0  0  0  0  0  0  0  0  0  0  0  0
    0.0000    0.0000    0.0000 H   0  0  0  0  0  0  0  0  0  0  0  0
    0.0000    0.0000    0.0000 H   0  0  0  0  0  0  0  0  0  0  0  0
    0.0000    0.0000    0.0000 H   0  0  0  0  0  0  0  0  0  0  0  0
    0.0000    0.0000    0.0000 H   0  0  0  0  0  0  0  0  0  0  0  0
    0.0000    0.0000    0.0000 H   0  0  0  0  0  0  0  0  0  0  0  0
    0.0000    0.0000    0.0000 H   0  0  0  0  0  0  0  0  0  0  0  0
    0.0000    0.0000    0.0000 H   0  0  0  0  0  0  0  0  0  0  0  0
    0.0000    0.0000    0.0000 H   0  0  0  0  0  0  0  0  0  0  0  0
    0.0000    0.0000    0.0000 H   0  0  0  0  0  0  0  0  0  0  0  0
    0.0000    0.0000    0.0000 H   0  0  0  0  0  0  0  0  0  0  0  0
    0.0000    0.0000    0.0000 H   0  0  0  0  0  0  0  0  0  0  0  0
  1  2  1  0
  2  3  1  0
  3  4  1  0
  4  5  2  0
  4  6  1  0
  6  7  1  0
  7  8  1  0
  4  9  1  0
  9 10  1  0
 10 15  2  0
 10 11  1  0
 11 12  2  0
 12 13  1  0
 13 14  2  0
 14 15  1  0
 14 16  1  0
 16 17  1  0
 16 18  1  0
 12 19  1  0
  1 20  1  0
  1 21  1  0
  1 22  1  0
  2 23  1  0
  2 24  1  0
  7 25  1  0
  7 26  1  0
  8 27  1  0
  8 28  1  0
  8 29  1  0
 11 30  1  0
 16 31  1  0
 17 32  1  0
 17 33  1  0
 17 34  1  0
 18 35  1  0
 18 36  1  0
 18 37  1  0
 19 38  1  0
 19 39  1  0
 19 40  1  0
M  END
>  <partial_charges>  (383) 
-0.096400000155
0.156399995089
-0.542500019073
1.26450002193
-0.601499974728
-0.542500019073
0.156399995089
-0.096400000155
-0.582000017166
0.706799983978
-0.419499993324
0.488000005484
-0.711099982262
0.684499979019
-0.696600019932
-0.0983000025153
-0.0926000028849
-0.0926000028849
-0.158099994063
0.054699998349
0.054699998349
0.054699998349
0.0606000013649
0.0606000013649
0.0606000013649
0.0606000013649
0.054699998349
0.054699998349
0.054699998349
0.167300000787
0.076099999249
0.0445999987423
0.0445999987423
0.0445999987423
0.0445999987423
0.0445999987423
0.0445999987423
0.0639000013471
0.0639000013471
0.0639000013471

>  <partial_bond_orders>  (383) 
1.0
1.0
1.0
2.0
1.0
1.0
1.0
1.0
1.0
2.0
1.0
2.0
1.0
2.0
1.0
1.0
1.0
1.0
1.0
1.0
1.0
1.0
1.0
1.0
1.0
1.0
1.0
1.0
1.0
1.0
1.0
1.0
1.0
1.0
1.0
1.0
1.0
1.0
1.0
1.0

>  <atom_types>  (383) 
c3
c3
os
p5
s
os
c3
c3
os
ca
ca
ca
nb
ca
nb
c3
c3
c3
c3
hc
hc
hc
h1
h1
h1
h1
hc
hc
hc
ha
hc
hc
hc
hc
hc
hc
hc
hc
hc
hc

>  <target>  (383) 
-6.48

>  <cal>  (383) 
-10.753

$$$$
mobley_9112978
     RDKit          3D

 15 14  0  0  0  0  0  0  0  0999 V2000
    2.0320    2.2810   -0.2500 C   0  0  0  0  0  0  0  0  0  0  0  0
    1.0740    1.7590    0.8090 C   0  0  0  0  0  0  0  0  0  0  0  0
    0.8260    0.2890    0.6460 C   0  0  0  0  0  0  0  0  0  0  0  0
    1.5640   -0.6620    1.2360 C   0  0  0  0  0  0  0  0  0  0  0  0
    2.7260   -0.3780    2.1290 C   0  0  0  0  0  0  0  0  0  0  0  0
    0.0000    0.0000    0.0000 H   0  0  0  0  0  0  0  0  0  0  0  0
    0.0000    0.0000    0.0000 H   0  0  0  0  0  0  0  0  0  0  0  0
    0.0000    0.0000    0.0000 H   0  0  0  0  0  0  0  0  0  0  0  0
    0.0000    0.0000    0.0000 H   0  0  0  0  0  0  0  0  0  0  0  0
    0.0000    0.0000    0.0000 H   0  0  0  0  0  0  0  0  0  0  0  0
    0.0000    0.0000    0.0000 H   0  0  0  0  0  0  0  0  0  0  0  0
    0.0000    0.0000    0.0000 H   0  0  0  0  0  0  0  0  0  0  0  0
    0.0000    0.0000    0.0000 H   0  0  0  0  0  0  0  0  0  0  0  0
    0.0000    0.0000    0.0000 H   0  0  0  0  0  0  0  0  0  0  0  0
    0.0000    0.0000    0.0000 H   0  0  0  0  0  0  0  0  0  0  0  0
  1  2  1  0
  2  3  1  0
  3  4  2  0
  4  5  1  0
  1  6  1  0
  1  7  1  0
  1  8  1  0
  2  9  1  0
  2 10  1  0
  3 11  1  0
  4 12  1  0
  5 13  1  0
  5 14  1  0
  5 15  1  0
M  END
>  <partial_charges>  (384) 
-0.0878999978304
-0.0529000014067
-0.170399993658
-0.168699994683
-0.0672999992967
0.0340000018477
0.0340000018477
0.0340000018477
0.0430000014603
0.0430000014603
0.119499996305
0.117100000381
0.0408999994397
0.0408999994397
0.0408999994397

>  <partial_bond_orders>  (384) 
1.0
1.0
2.0
1.0
1.0
1.0
1.0
1.0
1.0
1.0
1.0
1.0
1.0
1.0

>  <atom_types>  (384) 
c3
c3
c2
c2
c3
hc
hc
hc
hc
hc
ha
ha
hc
hc
hc

>  <target>  (384) 
1.31

>  <cal>  (384) 
2.374

$$$$
mobley_9114381
     RDKit          3D

 12 11  0  0  0  0  0  0  0  0999 V2000
   -0.9280    0.5690    0.0840 C   0  0  0  0  0  0  0  0  0  0  0  0
   -1.2500    0.7970    1.4600 O   0  0  0  0  0  0  0  0  0  0  0  0
   -1.4580   -0.3260    2.2100 C   0  0  0  0  0  0  0  0  0  0  0  0
   -1.3920   -1.4790    1.8050 O   0  0  0  0  0  0  0  0  0  0  0  0
   -1.7830    0.0870    3.6250 C   0  0  0  0  0  0  0  0  0  0  0  0
   -2.0210   -1.0690    4.4960 C   0  0  0  0  0  0  0  0  0  0  0  0
   -2.2110   -1.9810    5.1890 N   0  0  0  0  0  0  0  0  0  0  0  0
    0.0000    0.0000    0.0000 H   0  0  0  0  0  0  0  0  0  0  0  0
    0.0000    0.0000    0.0000 H   0  0  0  0  0  0  0  0  0  0  0  0
    0.0000    0.0000    0.0000 H   0  0  0  0  0  0  0  0  0  0  0  0
    0.0000    0.0000    0.0000 H   0  0  0  0  0  0  0  0  0  0  0  0
    0.0000    0.0000    0.0000 H   0  0  0  0  0  0  0  0  0  0  0  0
  1  2  1  0
  2  3  1  0
  3  4  2  0
  3  5  1  0
  5  6  1  0
  6  7  3  0
  1  8  1  0
  1  9  1  0
  1 10  1  0
  5 11  1  0
  5 12  1  0
M  END
>  <partial_charges>  (385) 
0.128199994564
-0.445399999619
0.631200015545
-0.511200010777
-0.0658000037074
0.208100005984
-0.333299994469
0.0551999993622
0.0551999993622
0.0551999993622
0.111199997365
0.111199997365

>  <partial_bond_orders>  (385) 
1.0
1.0
2.0
1.0
1.0
3.0
1.0
1.0
1.0
1.0
1.0

>  <atom_types>  (385) 
c3
os
c
o
c3
c1
n1
h1
h1
h1
hc
hc

>  <target>  (385) 
-6.72

>  <cal>  (385) 
-6.36

$$$$
mobley_1178614
     RDKit          3D

 13 13  0  0  0  0  0  0  0  0999 V2000
    1.8850   -1.0360   -0.1120 C   0  0  0  0  0  0  0  0  0  0  0  0
    2.9210   -1.6310    0.6080 C   0  0  0  0  0  0  0  0  0  0  0  0
    2.8780   -1.6520    2.0020 C   0  0  0  0  0  0  0  0  0  0  0  0
    1.8000   -1.0790    2.6760 C   0  0  0  0  0  0  0  0  0  0  0  0
    0.7640   -0.4840    1.9550 C   0  0  0  0  0  0  0  0  0  0  0  0
    0.8070   -0.4630    0.5610 C   0  0  0  0  0  0  0  0  0  0  0  0
   -0.3020    0.0840    2.5870 O   0  0  0  0  0  0  0  0  0  0  0  0
    1.7730   -1.1190    4.4000 Cl  0  0  0  0  0  0  0  0  0  0  0  0
    0.0000    0.0000    0.0000 H   0  0  0  0  0  0  0  0  0  0  0  0
    0.0000    0.0000    0.0000 H   0  0  0  0  0  0  0  0  0  0  0  0
    0.0000    0.0000    0.0000 H   0  0  0  0  0  0  0  0  0  0  0  0
    0.0000    0.0000    0.0000 H   0  0  0  0  0  0  0  0  0  0  0  0
    0.0000    0.0000    0.0000 H   0  0  0  0  0  0  0  0  0  0  0  0
  1  6  2  0
  1  2  1  0
  2  3  2  0
  3  4  1  0
  4  5  2  0
  5  6  1  0
  5  7  1  0
  4  8  1  0
  1  9  1  0
  2 10  1  0
  3 11  1  0
  6 12  1  0
  7 13  1  0
M  END
>  <partial_charges>  (386) 
-0.0935999974608
-0.159199997783
-0.0851000025868
-0.070799998939
0.137099996209
-0.151800006628
-0.491899996996
-0.096400000155
0.139500007033
0.138799995184
0.1481000036
0.155200004578
0.43029999733

>  <partial_bond_orders>  (386) 
2.0
1.0
2.0
1.0
2.0
1.0
1.0
1.0
1.0
1.0
1.0
1.0
1.0

>  <atom_types>  (386) 
ca
ca
ca
ca
ca
ca
oh
cl
ha
ha
ha
ha
ho

>  <target>  (386) 
-4.55

>  <cal>  (386) 
-3.317

$$$$
mobley_859464
     RDKit          3D

 20 19  0  0  0  0  0  0  0  0999 V2000
    0.9980   -0.3580   -0.2740 C   0  0  0  0  0  0  0  0  0  0  0  0
    1.8180    0.7470   -0.9440 C   0  0  0  0  0  0  0  0  0  0  0  0
    1.1580    1.1800   -2.2510 C   0  0  0  0  0  0  0  0  0  0  0  0
    1.9990    1.9490   -0.0130 C   0  0  0  0  0  0  0  0  0  0  0  0
    2.6750    1.5480    1.1710 O   0  0  0  0  0  0  0  0  0  0  0  0
    2.9010    2.5340    2.0910 C   0  0  0  0  0  0  0  0  0  0  0  0
    2.5760    3.7080    1.9820 O   0  0  0  0  0  0  0  0  0  0  0  0
    3.6170    1.9670    3.2800 C   0  0  0  0  0  0  0  0  0  0  0  0
    0.0000    0.0000    0.0000 H   0  0  0  0  0  0  0  0  0  0  0  0
    0.0000    0.0000    0.0000 H   0  0  0  0  0  0  0  0  0  0  0  0
    0.0000    0.0000    0.0000 H   0  0  0  0  0  0  0  0  0  0  0  0
    0.0000    0.0000    0.0000 H   0  0  0  0  0  0  0  0  0  0  0  0
    0.0000    0.0000    0.0000 H   0  0  0  0  0  0  0  0  0  0  0  0
    0.0000    0.0000    0.0000 H   0  0  0  0  0  0  0  0  0  0  0  0
    0.0000    0.0000    0.0000 H   0  0  0  0  0  0  0  0  0  0  0  0
    0.0000    0.0000    0.0000 H   0  0  0  0  0  0  0  0  0  0  0  0
    0.0000    0.0000    0.0000 H   0  0  0  0  0  0  0  0  0  0  0  0
    0.0000    0.0000    0.0000 H   0  0  0  0  0  0  0  0  0  0  0  0
    0.0000    0.0000    0.0000 H   0  0  0  0  0  0  0  0  0  0  0  0
    0.0000    0.0000    0.0000 H   0  0  0  0  0  0  0  0  0  0  0  0
  1  2  1  0
  2  3  1  0
  2  4  1  0
  4  5  1  0
  5  6  1  0
  6  7  2  0
  6  8  1  0
  1  9  1  0
  1 10  1  0
  1 11  1  0
  2 12  1  0
  3 13  1  0
  3 14  1  0
  3 15  1  0
  4 16  1  0
  4 17  1  0
  8 18  1  0
  8 19  1  0
  8 20  1  0
M  END
>  <partial_charges>  (387) 
-0.0935999974608
-0.0912000015378
-0.0935999974608
0.136399999261
-0.448599994183
0.636799991131
-0.53979998827
-0.152199998498
0.0384000018239
0.0384000018239
0.0384000018239
0.0568000003695
0.0384000018239
0.0384000018239
0.0384000018239
0.0668999999762
0.0668999999762
0.0749000012875
0.0749000012875
0.0749000012875

>  <partial_bond_orders>  (387) 
1.0
1.0
1.0
1.0
1.0
2.0
1.0
1.0
1.0
1.0
1.0
1.0
1.0
1.0
1.0
1.0
1.0
1.0
1.0

>  <atom_types>  (387) 
c3
c3
c3
c3
os
c
o
c3
hc
hc
hc
hc
hc
hc
hc
h1
h1
hc
hc
hc

>  <target>  (387) 
-2.36

>  <cal>  (387) 
-2.896

$$$$
mobley_63712
     RDKit          3D

 20 20  0  0  0  0  0  0  0  0999 V2000
   -2.2770    2.8570    2.7080 C   0  0  0  0  0  0  0  0  0  0  0  0
   -1.0460    2.5100    1.9970 N   0  0  0  0  0  0  0  0  0  0  0  0
   -0.5090    1.2350    2.4930 C   0  0  0  0  0  0  0  0  0  0  0  0
    0.8050    0.8810    1.7940 C   0  0  0  0  0  0  0  0  0  0  0  0
    0.6360    0.8490    0.2790 C   0  0  0  0  0  0  0  0  0  0  0  0
    0.0020    2.1440   -0.2140 C   0  0  0  0  0  0  0  0  0  0  0  0
   -1.2870    2.4580    0.5480 C   0  0  0  0  0  0  0  0  0  0  0  0
    0.0000    0.0000    0.0000 H   0  0  0  0  0  0  0  0  0  0  0  0
    0.0000    0.0000    0.0000 H   0  0  0  0  0  0  0  0  0  0  0  0
    0.0000    0.0000    0.0000 H   0  0  0  0  0  0  0  0  0  0  0  0
    0.0000    0.0000    0.0000 H   0  0  0  0  0  0  0  0  0  0  0  0
    0.0000    0.0000    0.0000 H   0  0  0  0  0  0  0  0  0  0  0  0
    0.0000    0.0000    0.0000 H   0  0  0  0  0  0  0  0  0  0  0  0
    0.0000    0.0000    0.0000 H   0  0  0  0  0  0  0  0  0  0  0  0
    0.0000    0.0000    0.0000 H   0  0  0  0  0  0  0  0  0  0  0  0
    0.0000    0.0000    0.0000 H   0  0  0  0  0  0  0  0  0  0  0  0
    0.0000    0.0000    0.0000 H   0  0  0  0  0  0  0  0  0  0  0  0
    0.0000    0.0000    0.0000 H   0  0  0  0  0  0  0  0  0  0  0  0
    0.0000    0.0000    0.0000 H   0  0  0  0  0  0  0  0  0  0  0  0
    0.0000    0.0000    0.0000 H   0  0  0  0  0  0  0  0  0  0  0  0
  1  2  1  0
  2  7  1  0
  2  3  1  0
  3  4  1  0
  4  5  1  0
  5  6  1  0
  6  7  1  0
  1  8  1  0
  1  9  1  0
  1 10  1  0
  3 11  1  0
  3 12  1  0
  4 13  1  0
  4 14  1  0
  5 15  1  0
  5 16  1  0
  6 17  1  0
  6 18  1  0
  7 19  1  0
  7 20  1  0
M  END
>  <partial_charges>  (388) 
0.148399993777
-0.712300002575
0.159299999475
-0.0766000002623
-0.0778999999166
-0.0766000002623
0.159299999475
0.0313999988139
0.0313999988139
0.0313999988139
0.0296999998391
0.0296999998391
0.0465000011027
0.0465000011027
0.0386999994516
0.0386999994516
0.0465000011027
0.0465000011027
0.0296999998391
0.0296999998391

>  <partial_bond_orders>  (388) 
1.0
1.0
1.0
1.0
1.0
1.0
1.0
1.0
1.0
1.0
1.0
1.0
1.0
1.0
1.0
1.0
1.0
1.0
1.0
1.0

>  <atom_types>  (388) 
c3
n3
c3
c3
c3
c3
c3
h1
h1
h1
h1
h1
hc
hc
hc
hc
hc
hc
h1
h1

>  <target>  (388) 
-3.88

>  <cal>  (388) 
-3.467

$$$$
mobley_1079207
     RDKit          3D

 12 12  0  0  0  0  0  0  0  0999 V2000
    1.8850   -1.0360   -0.1120 C   0  0  0  0  0  0  0  0  0  0  0  0
    2.9210   -1.6310    0.6080 C   0  0  0  0  0  0  0  0  0  0  0  0
    2.8780   -1.6520    2.0020 C   0  0  0  0  0  0  0  0  0  0  0  0
    1.8000   -1.0790    2.6760 C   0  0  0  0  0  0  0  0  0  0  0  0
    0.7640   -0.4840    1.9550 C   0  0  0  0  0  0  0  0  0  0  0  0
    0.8070   -0.4630    0.5610 C   0  0  0  0  0  0  0  0  0  0  0  0
   -0.5670    0.2230    2.7850 Cl  0  0  0  0  0  0  0  0  0  0  0  0
    4.1570   -2.3850    2.8910 Cl  0  0  0  0  0  0  0  0  0  0  0  0
    0.0000    0.0000    0.0000 H   0  0  0  0  0  0  0  0  0  0  0  0
    0.0000    0.0000    0.0000 H   0  0  0  0  0  0  0  0  0  0  0  0
    0.0000    0.0000    0.0000 H   0  0  0  0  0  0  0  0  0  0  0  0
    0.0000    0.0000    0.0000 H   0  0  0  0  0  0  0  0  0  0  0  0
  1  6  2  0
  1  2  1  0
  2  3  2  0
  3  4  1  0
  4  5  2  0
  5  6  1  0
  5  7  1  0
  3  8  1  0
  1  9  1  0
  2 10  1  0
  4 11  1  0
  6 12  1  0
M  END
>  <partial_charges>  (389) 
-0.112999998033
-0.125100001693
0.0243999995291
-0.120999999344
0.0243999995291
-0.125100001693
-0.0850000008941
-0.0850000008941
0.143800005317
0.150099992752
0.161599993706
0.150099992752

>  <partial_bond_orders>  (389) 
2.0
1.0
2.0
1.0
2.0
1.0
1.0
1.0
1.0
1.0
1.0
1.0

>  <atom_types>  (389) 
ca
ca
ca
ca
ca
ca
cl
cl
ha
ha
ha
ha

>  <target>  (389) 
-0.98

>  <cal>  (389) 
-0.11

$$$$
mobley_8668219
     RDKit          3D

 23 22  0  0  1  0  0  0  0  0999 V2000
   -2.0670    1.4400   -0.3330 C   0  0  0  0  0  0  0  0  0  0  0  0
   -0.7810    1.0760   -1.0620 C   0  0  0  0  0  0  0  0  0  0  0  0
   -0.1970   -0.2980   -0.6630 C   0  0  0  0  0  0  0  0  0  0  0  0
    1.0130   -0.5960   -1.5590 C   0  0  0  0  0  0  0  0  0  0  0  0
    0.1140   -0.4340    0.8550 C   0  0  0  0  0  0  0  0  0  0  0  0
    0.6910   -1.8130    1.2000 C   0  0  0  0  0  0  0  0  0  0  0  0
    1.0390    0.6570    1.4000 C   0  0  0  0  0  0  0  0  0  0  0  0
    0.0000    0.0000    0.0000 H   0  0  0  0  0  0  0  0  0  0  0  0
    0.0000    0.0000    0.0000 H   0  0  0  0  0  0  0  0  0  0  0  0
    0.0000    0.0000    0.0000 H   0  0  0  0  0  0  0  0  0  0  0  0
    0.0000    0.0000    0.0000 H   0  0  0  0  0  0  0  0  0  0  0  0
    0.0000    0.0000    0.0000 H   0  0  0  0  0  0  0  0  0  0  0  0
    0.0000    0.0000    0.0000 H   0  0  0  0  0  0  0  0  0  0  0  0
    0.0000    0.0000    0.0000 H   0  0  0  0  0  0  0  0  0  0  0  0
    0.0000    0.0000    0.0000 H   0  0  0  0  0  0  0  0  0  0  0  0
    0.0000    0.0000    0.0000 H   0  0  0  0  0  0  0  0  0  0  0  0
    0.0000    0.0000    0.0000 H   0  0  0  0  0  0  0  0  0  0  0  0
    0.0000    0.0000    0.0000 H   0  0  0  0  0  0  0  0  0  0  0  0
    0.0000    0.0000    0.0000 H   0  0  0  0  0  0  0  0  0  0  0  0
    0.0000    0.0000    0.0000 H   0  0  0  0  0  0  0  0  0  0  0  0
    0.0000    0.0000    0.0000 H   0  0  0  0  0  0  0  0  0  0  0  0
    0.0000    0.0000    0.0000 H   0  0  0  0  0  0  0  0  0  0  0  0
    0.0000    0.0000    0.0000 H   0  0  0  0  0  0  0  0  0  0  0  0
  1  2  1  0
  2  3  1  0
  3  4  1  0
  3  5  1  0
  5  6  1  0
  5  7  1  0
  1  8  1  0
  1  9  1  0
  1 10  1  0
  2 11  1  0
  2 12  1  0
  3 13  1  0
  4 14  1  0
  4 15  1  0
  4 16  1  0
  5 17  1  0
  6 18  1  0
  6 19  1  0
  6 20  1  0
  7 21  1  0
  7 22  1  0
  7 23  1  0
M  END
>  <partial_charges>  (390) 
-0.0922999978065
-0.0771000012755
-0.0584999993443
0.0417999997735
-0.0907000005245
-0.0608999989927
-0.0900000035763
-0.0900000035763
0.0324999988079
0.0324999988079
0.0324999988079
0.0381999984384
0.0381999984384
0.0333999991417
0.0333999991417
0.0333999991417
0.0445000007749
0.0331999994814
0.0331999994814
0.0331999994814
0.0331999994814
0.0331999994814
0.0331999994814

>  <partial_bond_orders>  (390) 
1.0
1.0
1.0
1.0
1.0
1.0
1.0
1.0
1.0
1.0
1.0
1.0
1.0
1.0
1.0
1.0
1.0
1.0
1.0
1.0
1.0
1.0

>  <atom_types>  (390) 
c3
c3
c3
hc
c3
c3
c3
c3
hc
hc
hc
hc
hc
hc
hc
hc
hc
hc
hc
hc
hc
hc
hc

>  <target>  (390) 
2.52

>  <cal>  (390) 
2.625

$$$$
mobley_9246351
     RDKit          3D

  5  4  0  0  0  0  0  0  0  0999 V2000
   -0.0930    0.1110    0.1010 C   0  0  0  0  0  0  0  0  0  0  0  0
   -0.8470   -1.4830   -0.6930 Br  0  0  0  0  0  0  0  0  0  0  0  0
    1.7760    0.3680   -0.3210 Br  0  0  0  0  0  0  0  0  0  0  0  0
    0.0000    0.0000    0.0000 H   0  0  0  0  0  0  0  0  0  0  0  0
    0.0000    0.0000    0.0000 H   0  0  0  0  0  0  0  0  0  0  0  0
  1  2  1  0
  1  3  1  0
  1  4  1  0
  1  5  1  0
M  END
>  <partial_charges>  (391) 
0.0104999998584
-0.109300002456
-0.109300002456
0.104000002146
0.104000002146

>  <partial_bond_orders>  (391) 
1.0
1.0
1.0
1.0

>  <atom_types>  (391) 
c3
br
br
h2
h2

>  <target>  (391) 
-1.96

>  <cal>  (391) 
-0.405

$$$$
mobley_2294995
     RDKit          3D

 11 10  0  0  0  0  0  0  0  0999 V2000
    1.0620   -0.2680   -0.0010 C   0  0  0  0  0  0  0  0  0  0  0  0
    1.9100    0.9130   -0.4220 C   0  0  0  0  0  0  0  0  0  0  0  0
    1.5170    1.3240   -1.7230 O   0  0  0  0  0  0  0  0  0  0  0  0
    2.1980    2.3850   -2.2390 C   0  0  0  0  0  0  0  0  0  0  0  0
    3.1000    3.0130   -1.7070 O   0  0  0  0  0  0  0  0  0  0  0  0
    0.0000    0.0000    0.0000 H   0  0  0  0  0  0  0  0  0  0  0  0
    0.0000    0.0000    0.0000 H   0  0  0  0  0  0  0  0  0  0  0  0
    0.0000    0.0000    0.0000 H   0  0  0  0  0  0  0  0  0  0  0  0
    0.0000    0.0000    0.0000 H   0  0  0  0  0  0  0  0  0  0  0  0
    0.0000    0.0000    0.0000 H   0  0  0  0  0  0  0  0  0  0  0  0
    0.0000    0.0000    0.0000 H   0  0  0  0  0  0  0  0  0  0  0  0
  1  2  1  0
  2  3  1  0
  3  4  1  0
  4  5  2  0
  1  6  1  0
  1  7  1  0
  1  8  1  0
  2  9  1  0
  2 10  1  0
  4 11  1  0
M  END
>  <partial_charges>  (392) 
-0.0993999987841
0.132300004363
-0.447600007057
0.628700017929
-0.539499998093
0.0482000000775
0.0482000000775
0.0482000000775
0.0505000017583
0.0505000017583
0.0798000022769

>  <partial_bond_orders>  (392) 
1.0
1.0
1.0
2.0
1.0
1.0
1.0
1.0
1.0
1.0

>  <atom_types>  (392) 
c3
c3
os
c
o
hc
hc
hc
h1
h1
h5

>  <target>  (392) 
-2.56

>  <cal>  (392) 
-3.867

$$$$
mobley_1827204
     RDKit          3D

 19 18  0  0  0  0  0  0  0  0999 V2000
    1.1960    1.4900   -2.1030 C   0  0  0  0  0  0  0  0  0  0  0  0
    0.5390    0.2030   -1.6300 C   0  0  0  0  0  0  0  0  0  0  0  0
   -0.0100    0.3440   -0.2100 C   0  0  0  0  0  0  0  0  0  0  0  0
   -0.6700   -0.9550    0.2620 C   0  0  0  0  0  0  0  0  0  0  0  0
   -1.2280   -0.8420    1.6770 C   0  0  0  0  0  0  0  0  0  0  0  0
   -1.8710   -2.1310    2.1180 C   0  0  0  0  0  0  0  0  0  0  0  0
   -1.9280   -3.1310    1.4110 O   0  0  0  0  0  0  0  0  0  0  0  0
    0.0000    0.0000    0.0000 H   0  0  0  0  0  0  0  0  0  0  0  0
    0.0000    0.0000    0.0000 H   0  0  0  0  0  0  0  0  0  0  0  0
    0.0000    0.0000    0.0000 H   0  0  0  0  0  0  0  0  0  0  0  0
    0.0000    0.0000    0.0000 H   0  0  0  0  0  0  0  0  0  0  0  0
    0.0000    0.0000    0.0000 H   0  0  0  0  0  0  0  0  0  0  0  0
    0.0000    0.0000    0.0000 H   0  0  0  0  0  0  0  0  0  0  0  0
    0.0000    0.0000    0.0000 H   0  0  0  0  0  0  0  0  0  0  0  0
    0.0000    0.0000    0.0000 H   0  0  0  0  0  0  0  0  0  0  0  0
    0.0000    0.0000    0.0000 H   0  0  0  0  0  0  0  0  0  0  0  0
    0.0000    0.0000    0.0000 H   0  0  0  0  0  0  0  0  0  0  0  0
    0.0000    0.0000    0.0000 H   0  0  0  0  0  0  0  0  0  0  0  0
    0.0000    0.0000    0.0000 H   0  0  0  0  0  0  0  0  0  0  0  0
  1  2  1  0
  2  3  1  0
  3  4  1  0
  4  5  1  0
  5  6  1  0
  6  7  2  0
  1  8  1  0
  1  9  1  0
  1 10  1  0
  2 11  1  0
  2 12  1  0
  3 13  1  0
  3 14  1  0
  4 15  1  0
  4 16  1  0
  5 17  1  0
  5 18  1  0
  6 19  1  0
M  END
>  <partial_charges>  (393) 
-0.0926999971271
-0.0798999965191
-0.0772999972105
-0.0763000026345
-0.198799997568
0.563000023365
-0.524100005627
0.0329999998212
0.0329999998212
0.0329999998212
0.0410999991
0.0410999991
0.0375000014901
0.0375000014901
0.0533999986947
0.0533999986947
0.0661000013351
0.0661000013351
-0.00910000037402

>  <partial_bond_orders>  (393) 
1.0
1.0
1.0
1.0
1.0
2.0
1.0
1.0
1.0
1.0
1.0
1.0
1.0
1.0
1.0
1.0
1.0
1.0

>  <atom_types>  (393) 
c3
c3
c3
c3
c3
c
o
hc
hc
hc
hc
hc
hc
hc
hc
hc
hc
hc
h4

>  <target>  (393) 
-2.81

>  <cal>  (393) 
-2.86

$$$$
mobley_1036761
     RDKit          3D

 20 20  0  0  0  0  0  0  0  0999 V2000
    0.5640    0.5440   -0.7660 C   0  0  0  0  0  0  0  0  0  0  0  0
    0.3510   -0.1160   -2.1260 C   0  0  0  0  0  0  0  0  0  0  0  0
    1.0410    0.6630   -3.2440 C   0  0  0  0  0  0  0  0  0  0  0  0
    0.5980    2.1300   -3.2590 C   0  0  0  0  0  0  0  0  0  0  0  0
    0.8240    2.7890   -1.8940 C   0  0  0  0  0  0  0  0  0  0  0  0
    0.1340    2.0080   -0.7770 C   0  0  0  0  0  0  0  0  0  0  0  0
    1.3310    2.8600   -4.2910 N   0  0  0  0  0  0  0  0  0  0  0  0
    0.0000    0.0000    0.0000 H   0  0  0  0  0  0  0  0  0  0  0  0
    0.0000    0.0000    0.0000 H   0  0  0  0  0  0  0  0  0  0  0  0
    0.0000    0.0000    0.0000 H   0  0  0  0  0  0  0  0  0  0  0  0
    0.0000    0.0000    0.0000 H   0  0  0  0  0  0  0  0  0  0  0  0
    0.0000    0.0000    0.0000 H   0  0  0  0  0  0  0  0  0  0  0  0
    0.0000    0.0000    0.0000 H   0  0  0  0  0  0  0  0  0  0  0  0
    0.0000    0.0000    0.0000 H   0  0  0  0  0  0  0  0  0  0  0  0
    0.0000    0.0000    0.0000 H   0  0  0  0  0  0  0  0  0  0  0  0
    0.0000    0.0000    0.0000 H   0  0  0  0  0  0  0  0  0  0  0  0
    0.0000    0.0000    0.0000 H   0  0  0  0  0  0  0  0  0  0  0  0
    0.0000    0.0000    0.0000 H   0  0  0  0  0  0  0  0  0  0  0  0
    0.0000    0.0000    0.0000 H   0  0  0  0  0  0  0  0  0  0  0  0
    0.0000    0.0000    0.0000 H   0  0  0  0  0  0  0  0  0  0  0  0
  1  6  1  0
  1  2  1  0
  2  3  1  0
  3  4  1  0
  4  5  1  0
  5  6  1  0
  4  7  1  0
  1  8  1  0
  1  9  1  0
  2 10  1  0
  2 11  1  0
  3 12  1  0
  3 13  1  0
  4 14  1  0
  5 15  1  0
  5 16  1  0
  6 17  1  0
  6 18  1  0
  7 19  1  0
  7 20  1  0
M  END
>  <partial_charges>  (394) 
-0.0777999982238
-0.0740000009537
-0.0931999981403
0.162300005555
-0.0931999981403
-0.0740000009537
-0.902400016785
0.0392000004649
0.0392000004649
0.040600001812
0.040600001812
0.041400000453
0.041400000453
0.056899998337
0.041400000453
0.041400000453
0.040600001812
0.040600001812
0.344500005245
0.344500005245

>  <partial_bond_orders>  (394) 
1.0
1.0
1.0
1.0
1.0
1.0
1.0
1.0
1.0
1.0
1.0
1.0
1.0
1.0
1.0
1.0
1.0
1.0
1.0
1.0

>  <atom_types>  (394) 
c3
c3
c3
c3
c3
c3
n3
hc
hc
hc
hc
hc
hc
h1
hc
hc
hc
hc
hn
hn

>  <target>  (394) 
-4.59

>  <cal>  (394) 
-3.953

$$$$
mobley_4893032
     RDKit          3D

 15 14  0  0  0  0  0  0  0  0999 V2000
    0.1080    0.9370    0.5560 C   0  0  0  0  0  0  0  0  0  0  0  0
    0.2520    0.6530    2.0420 C   0  0  0  0  0  0  0  0  0  0  0  0
    0.4020    1.9430    2.8480 C   0  0  0  0  0  0  0  0  0  0  0  0
    0.5470    1.6540    4.3410 C   0  0  0  0  0  0  0  0  0  0  0  0
    0.6900    2.8980    5.1090 C   0  0  0  0  0  0  0  0  0  0  0  0
    0.8020    3.8800    5.7170 N   0  0  0  0  0  0  0  0  0  0  0  0
    0.0000    0.0000    0.0000 H   0  0  0  0  0  0  0  0  0  0  0  0
    0.0000    0.0000    0.0000 H   0  0  0  0  0  0  0  0  0  0  0  0
    0.0000    0.0000    0.0000 H   0  0  0  0  0  0  0  0  0  0  0  0
    0.0000    0.0000    0.0000 H   0  0  0  0  0  0  0  0  0  0  0  0
    0.0000    0.0000    0.0000 H   0  0  0  0  0  0  0  0  0  0  0  0
    0.0000    0.0000    0.0000 H   0  0  0  0  0  0  0  0  0  0  0  0
    0.0000    0.0000    0.0000 H   0  0  0  0  0  0  0  0  0  0  0  0
    0.0000    0.0000    0.0000 H   0  0  0  0  0  0  0  0  0  0  0  0
    0.0000    0.0000    0.0000 H   0  0  0  0  0  0  0  0  0  0  0  0
  1  2  1  0
  2  3  1  0
  3  4  1  0
  4  5  1  0
  5  6  3  0
  1  7  1  0
  1  8  1  0
  1  9  1  0
  2 10  1  0
  2 11  1  0
  3 12  1  0
  3 13  1  0
  4 14  1  0
  4 15  1  0
M  END
>  <partial_charges>  (395) 
-0.0931999981403
-0.0807000026107
-0.0793000012636
-0.0219000000507
0.210299998522
-0.376800000668
0.0366999991238
0.0366999991238
0.0366999991238
0.0406999997795
0.0406999997795
0.0524000003934
0.0524000003934
0.0725999996066
0.0725999996066

>  <partial_bond_orders>  (395) 
1.0
1.0
1.0
1.0
3.0
1.0
1.0
1.0
1.0
1.0
1.0
1.0
1.0
1.0

>  <atom_types>  (395) 
c3
c3
c3
c3
c1
n1
hc
hc
hc
hc
hc
hc
hc
hc
hc

>  <target>  (395) 
-3.52

>  <cal>  (395) 
-2.147

$$$$
mobley_8789465
     RDKit          3D

 13 13  0  0  0  0  0  0  0  0999 V2000
    1.8850   -1.0360   -0.1120 C   0  0  0  0  0  0  0  0  0  0  0  0
    2.9210   -1.6310    0.6080 C   0  0  0  0  0  0  0  0  0  0  0  0
    2.8780   -1.6520    2.0020 C   0  0  0  0  0  0  0  0  0  0  0  0
    1.8000   -1.0790    2.6760 C   0  0  0  0  0  0  0  0  0  0  0  0
    0.7640   -0.4840    1.9550 C   0  0  0  0  0  0  0  0  0  0  0  0
    0.8070   -0.4630    0.5610 C   0  0  0  0  0  0  0  0  0  0  0  0
   -0.3080    0.0870    2.5750 O   0  0  0  0  0  0  0  0  0  0  0  0
    1.7840   -1.1380    4.7640 I   0  0  0  0  0  0  0  0  0  0  0  0
    0.0000    0.0000    0.0000 H   0  0  0  0  0  0  0  0  0  0  0  0
    0.0000    0.0000    0.0000 H   0  0  0  0  0  0  0  0  0  0  0  0
    0.0000    0.0000    0.0000 H   0  0  0  0  0  0  0  0  0  0  0  0
    0.0000    0.0000    0.0000 H   0  0  0  0  0  0  0  0  0  0  0  0
    0.0000    0.0000    0.0000 H   0  0  0  0  0  0  0  0  0  0  0  0
  1  6  2  0
  1  2  1  0
  2  3  2  0
  3  4  1  0
  4  5  2  0
  5  6  1  0
  5  7  1  0
  4  8  1  0
  1  9  1  0
  2 10  1  0
  3 11  1  0
  6 12  1  0
  7 13  1  0
M  END
>  <partial_charges>  (396) 
-0.0785999968648
-0.169900000095
-0.0627000033855
-0.0634000003338
0.163599997759
-0.161799997091
-0.490999996662
-0.143800005317
0.138999998569
0.139100000262
0.144800007343
0.154899999499
0.429800003767

>  <partial_bond_orders>  (396) 
2.0
1.0
2.0
1.0
2.0
1.0
1.0
1.0
1.0
1.0
1.0
1.0
1.0

>  <atom_types>  (396) 
ca
ca
ca
ca
ca
ca
oh
i
ha
ha
ha
ha
ho

>  <target>  (396) 
-6.2

>  <cal>  (396) 
-3.221

$$$$
mobley_3211679
     RDKit          3D

 16 16  0  0  0  0  0  0  0  0999 V2000
   -1.2210    0.7600   -0.2760 C   0  0  0  0  0  0  0  0  0  0  0  0
    0.0120    1.4280    0.3260 C   0  0  0  0  0  0  0  0  0  0  0  0
    1.2980    0.7230   -0.1140 C   0  0  0  0  0  0  0  0  0  0  0  0
    1.1900   -0.7730   -0.0850 C   0  0  0  0  0  0  0  0  0  0  0  0
    0.0220   -1.4200    0.0340 C   0  0  0  0  0  0  0  0  0  0  0  0
   -1.3000   -0.7180    0.1160 C   0  0  0  0  0  0  0  0  0  0  0  0
    0.0000    0.0000    0.0000 H   0  0  0  0  0  0  0  0  0  0  0  0
    0.0000    0.0000    0.0000 H   0  0  0  0  0  0  0  0  0  0  0  0
    0.0000    0.0000    0.0000 H   0  0  0  0  0  0  0  0  0  0  0  0
    0.0000    0.0000    0.0000 H   0  0  0  0  0  0  0  0  0  0  0  0
    0.0000    0.0000    0.0000 H   0  0  0  0  0  0  0  0  0  0  0  0
    0.0000    0.0000    0.0000 H   0  0  0  0  0  0  0  0  0  0  0  0
    0.0000    0.0000    0.0000 H   0  0  0  0  0  0  0  0  0  0  0  0
    0.0000    0.0000    0.0000 H   0  0  0  0  0  0  0  0  0  0  0  0
    0.0000    0.0000    0.0000 H   0  0  0  0  0  0  0  0  0  0  0  0
    0.0000    0.0000    0.0000 H   0  0  0  0  0  0  0  0  0  0  0  0
  1  6  1  0
  1  2  1  0
  2  3  1  0
  3  4  1  0
  4  5  2  0
  5  6  1  0
  1  7  1  0
  1  8  1  0
  2  9  1  0
  2 10  1  0
  3 11  1  0
  3 12  1  0
  4 13  1  0
  5 14  1  0
  6 15  1  0
  6 16  1  0
M  END
>  <partial_charges>  (397) 
-0.0754999965429
-0.0754000023007
-0.0487000010908
-0.168200001121
-0.168200001121
-0.0487000010908
0.0401999987662
0.0401999987662
0.0401999987662
0.0401999987662
0.0458999983966
0.0458999983966
0.119999997318
0.119999997318
0.0458999983966
0.0458999983966

>  <partial_bond_orders>  (397) 
1.0
1.0
1.0
1.0
2.0
1.0
1.0
1.0
1.0
1.0
1.0
1.0
1.0
1.0
1.0
1.0

>  <atom_types>  (397) 
c3
c3
c3
c2
c2
c3
hc
hc
hc
hc
hc
hc
ha
ha
hc
hc

>  <target>  (397) 
0.14

>  <cal>  (397) 
1.175

$$$$
mobley_5499659
     RDKit          3D

 12 12  0  0  0  0  0  0  0  0999 V2000
    3.6420   -2.4130   -1.7030 C   0  0  0  0  0  0  0  0  0  0  0  0
    2.3540   -2.0370   -1.1810 N   0  0  0  0  0  0  0  0  0  0  0  0
    1.9500   -0.7740   -0.8260 C   0  0  0  0  0  0  0  0  0  0  0  0
    0.6550   -0.7780   -0.3640 C   0  0  0  0  0  0  0  0  0  0  0  0
    0.2600   -2.0840   -0.4420 N   0  0  0  0  0  0  0  0  0  0  0  0
    1.3130   -2.8020   -0.9370 C   0  0  0  0  0  0  0  0  0  0  0  0
    0.0000    0.0000    0.0000 H   0  0  0  0  0  0  0  0  0  0  0  0
    0.0000    0.0000    0.0000 H   0  0  0  0  0  0  0  0  0  0  0  0
    0.0000    0.0000    0.0000 H   0  0  0  0  0  0  0  0  0  0  0  0
    0.0000    0.0000    0.0000 H   0  0  0  0  0  0  0  0  0  0  0  0
    0.0000    0.0000    0.0000 H   0  0  0  0  0  0  0  0  0  0  0  0
    0.0000    0.0000    0.0000 H   0  0  0  0  0  0  0  0  0  0  0  0
  1  2  1  0
  2  6  1  0
  2  3  1  0
  3  4  2  0
  4  5  1  0
  5  6  2  0
  1  7  1  0
  1  8  1  0
  1  9  1  0
  3 10  1  0
  4 11  1  0
  6 12  1  0
M  END
>  <partial_charges>  (398) 
0.0260000005364
-0.210899993777
-0.263099998236
0.293099999428
-0.668799996376
0.389800012112
0.0527000017464
0.0527000017464
0.0527000017464
0.17460000515
0.042199999094
0.0590999983251

>  <partial_bond_orders>  (398) 
1.0
1.0
1.0
2.0
1.0
2.0
1.0
1.0
1.0
1.0
1.0
1.0

>  <atom_types>  (398) 
c3
na
cc
cd
nd
cc
h1
h1
h1
h4
h4
h5

>  <target>  (398) 
-8.41

>  <cal>  (398) 
-6.282

$$$$
mobley_4762983
     RDKit          3D

 21 20  0  0  0  0  0  0  0  0999 V2000
   -5.9540    0.4470   -2.6220 C   0  0  0  0  0  0  0  0  0  0  0  0
   -5.7470   -0.4650   -1.4230 C   0  0  0  0  0  0  0  0  0  0  0  0
   -4.5290   -0.0420   -0.6000 C   0  0  0  0  0  0  0  0  0  0  0  0
   -4.3270   -0.9640    0.6060 C   0  0  0  0  0  0  0  0  0  0  0  0
   -3.1160   -0.5780    1.4610 C   0  0  0  0  0  0  0  0  0  0  0  0
   -2.9180   -1.4820    2.6420 C   0  0  0  0  0  0  0  0  0  0  0  0
   -1.8160   -2.2110    2.8490 C   0  0  0  0  0  0  0  0  0  0  0  0
    0.0000    0.0000    0.0000 H   0  0  0  0  0  0  0  0  0  0  0  0
    0.0000    0.0000    0.0000 H   0  0  0  0  0  0  0  0  0  0  0  0
    0.0000    0.0000    0.0000 H   0  0  0  0  0  0  0  0  0  0  0  0
    0.0000    0.0000    0.0000 H   0  0  0  0  0  0  0  0  0  0  0  0
    0.0000    0.0000    0.0000 H   0  0  0  0  0  0  0  0  0  0  0  0
    0.0000    0.0000    0.0000 H   0  0  0  0  0  0  0  0  0  0  0  0
    0.0000    0.0000    0.0000 H   0  0  0  0  0  0  0  0  0  0  0  0
    0.0000    0.0000    0.0000 H   0  0  0  0  0  0  0  0  0  0  0  0
    0.0000    0.0000    0.0000 H   0  0  0  0  0  0  0  0  0  0  0  0
    0.0000    0.0000    0.0000 H   0  0  0  0  0  0  0  0  0  0  0  0
    0.0000    0.0000    0.0000 H   0  0  0  0  0  0  0  0  0  0  0  0
    0.0000    0.0000    0.0000 H   0  0  0  0  0  0  0  0  0  0  0  0
    0.0000    0.0000    0.0000 H   0  0  0  0  0  0  0  0  0  0  0  0
    0.0000    0.0000    0.0000 H   0  0  0  0  0  0  0  0  0  0  0  0
  1  2  1  0
  2  3  1  0
  3  4  1  0
  4  5  1  0
  5  6  1  0
  6  7  2  3
  1  8  1  0
  1  9  1  0
  1 10  1  0
  2 11  1  0
  2 12  1  0
  3 13  1  0
  3 14  1  0
  4 15  1  0
  4 16  1  0
  5 17  1  0
  5 18  1  0
  6 19  1  0
  7 20  1  0
  7 21  1  0
M  END
>  <partial_charges>  (399) 
-0.0922999978065
-0.0803000032902
-0.0790000036359
-0.0754000023007
-0.0533000007272
-0.16249999404
-0.223800003529
0.0328000001609
0.0328000001609
0.0328000001609
0.0383000001311
0.0383000001311
0.0395000018179
0.0395000018179
0.0414999984205
0.0414999984205
0.0456000007689
0.0456000007689
0.117399998009
0.110500000417
0.110500000417

>  <partial_bond_orders>  (399) 
1.0
1.0
1.0
1.0
1.0
2.0
1.0
1.0
1.0
1.0
1.0
1.0
1.0
1.0
1.0
1.0
1.0
1.0
1.0
1.0

>  <atom_types>  (399) 
c3
c3
c3
c3
c3
c2
c2
hc
hc
hc
hc
hc
hc
hc
hc
hc
hc
hc
ha
ha
ha

>  <target>  (399) 
1.66

>  <cal>  (399) 
2.761

$$$$
mobley_8573194
     RDKit          3D

 13 12  0  0  0  0  0  0  0  0999 V2000
    1.0610    1.4260   -0.1950 C   0  0  0  0  0  0  0  0  0  0  0  0
    0.2740    0.3390    0.5170 C   0  0  0  0  0  0  0  0  0  0  0  0
   -0.4440   -0.5710   -0.4720 C   0  0  0  0  0  0  0  0  0  0  0  0
   -1.2350   -1.6610    0.2100 C   0  0  0  0  0  0  0  0  0  0  0  0
   -1.3070   -1.8170    1.4240 O   0  0  0  0  0  0  0  0  0  0  0  0
    0.0000    0.0000    0.0000 H   0  0  0  0  0  0  0  0  0  0  0  0
    0.0000    0.0000    0.0000 H   0  0  0  0  0  0  0  0  0  0  0  0
    0.0000    0.0000    0.0000 H   0  0  0  0  0  0  0  0  0  0  0  0
    0.0000    0.0000    0.0000 H   0  0  0  0  0  0  0  0  0  0  0  0
    0.0000    0.0000    0.0000 H   0  0  0  0  0  0  0  0  0  0  0  0
    0.0000    0.0000    0.0000 H   0  0  0  0  0  0  0  0  0  0  0  0
    0.0000    0.0000    0.0000 H   0  0  0  0  0  0  0  0  0  0  0  0
    0.0000    0.0000    0.0000 H   0  0  0  0  0  0  0  0  0  0  0  0
  1  2  1  0
  2  3  1  0
  3  4  1  0
  4  5  2  0
  1  6  1  0
  1  7  1  0
  1  8  1  0
  2  9  1  0
  2 10  1  0
  3 11  1  0
  3 12  1  0
  4 13  1  0
M  END
>  <partial_charges>  (400) 
-0.0927999988198
-0.0763999968767
-0.197799995542
0.562200009823
-0.524999976158
0.0344000011683
0.0344000011683
0.0344000011683
0.0527999997139
0.0527999997139
0.0654999986291
0.0654999986291
-0.00980000011623

>  <partial_bond_orders>  (400) 
1.0
1.0
1.0
2.0
1.0
1.0
1.0
1.0
1.0
1.0
1.0
1.0

>  <atom_types>  (400) 
c3
c3
c3
c
o
hc
hc
hc
hc
hc
hc
hc
h4

>  <target>  (400) 
-3.18

>  <cal>  (400) 
-3.044

$$$$
mobley_8337722
     RDKit          3D

 31 31  0  0  1  0  0  0  0  0999 V2000
    0.7610   -1.4080    2.2530 C   0  0  0  0  0  0  0  0  0  0  0  0
    0.9280    0.0810    1.9570 C   0  0  0  0  0  0  0  0  0  0  0  0
    0.9450    0.3350    0.4450 C   0  0  0  0  0  0  0  0  0  0  0  0
    1.1550    1.8130    0.1250 C   0  0  0  0  0  0  0  0  0  0  0  0
    2.4290    2.3630    0.7780 C   0  0  0  0  0  0  0  0  0  0  0  0
    2.4240    2.1030    2.2930 C   0  0  0  0  0  0  0  0  0  0  0  0
    2.2040    0.6220    2.6100 C   0  0  0  0  0  0  0  0  0  0  0  0
    3.6720    2.5110    2.8460 O   0  0  0  0  0  0  0  0  0  0  0  0
    2.5830    3.8550    0.4680 C   0  0  0  0  0  0  0  0  0  0  0  0
    2.6730    4.0790   -1.0390 C   0  0  0  0  0  0  0  0  0  0  0  0
    1.4220    4.6450    1.0630 C   0  0  0  0  0  0  0  0  0  0  0  0
    0.0000    0.0000    0.0000 H   0  0  0  0  0  0  0  0  0  0  0  0
    0.0000    0.0000    0.0000 H   0  0  0  0  0  0  0  0  0  0  0  0
    0.0000    0.0000    0.0000 H   0  0  0  0  0  0  0  0  0  0  0  0
    0.0000    0.0000    0.0000 H   0  0  0  0  0  0  0  0  0  0  0  0
    0.0000    0.0000    0.0000 H   0  0  0  0  0  0  0  0  0  0  0  0
    0.0000    0.0000    0.0000 H   0  0  0  0  0  0  0  0  0  0  0  0
    0.0000    0.0000    0.0000 H   0  0  0  0  0  0  0  0  0  0  0  0
    0.0000    0.0000    0.0000 H   0  0  0  0  0  0  0  0  0  0  0  0
    0.0000    0.0000    0.0000 H   0  0  0  0  0  0  0  0  0  0  0  0
    0.0000    0.0000    0.0000 H   0  0  0  0  0  0  0  0  0  0  0  0
    0.0000    0.0000    0.0000 H   0  0  0  0  0  0  0  0  0  0  0  0
    0.0000    0.0000    0.0000 H   0  0  0  0  0  0  0  0  0  0  0  0
    0.0000    0.0000    0.0000 H   0  0  0  0  0  0  0  0  0  0  0  0
    0.0000    0.0000    0.0000 H   0  0  0  0  0  0  0  0  0  0  0  0
    0.0000    0.0000    0.0000 H   0  0  0  0  0  0  0  0  0  0  0  0
    0.0000    0.0000    0.0000 H   0  0  0  0  0  0  0  0  0  0  0  0
    0.0000    0.0000    0.0000 H   0  0  0  0  0  0  0  0  0  0  0  0
    0.0000    0.0000    0.0000 H   0  0  0  0  0  0  0  0  0  0  0  0
    0.0000    0.0000    0.0000 H   0  0  0  0  0  0  0  0  0  0  0  0
    0.0000    0.0000    0.0000 H   0  0  0  0  0  0  0  0  0  0  0  0
  1  2  1  0
  2  7  1  0
  2  3  1  0
  3  4  1  0
  4  5  1  0
  5  6  1  0
  6  7  1  0
  6  8  1  0
  5  9  1  0
  9 10  1  0
  9 11  1  0
  1 12  1  0
  1 13  1  0
  1 14  1  0
  2 15  1  0
  3 16  1  0
  3 17  1  0
  4 18  1  0
  4 19  1  0
  5 20  1  0
  6 21  1  0
  7 22  1  0
  7 23  1  0
  8 24  1  0
  9 25  1  0
 10 26  1  0
 10 27  1  0
 10 28  1  0
 11 29  1  0
 11 30  1  0
 11 31  1  0
M  END
>  <partial_charges>  (401) 
-0.0909999981523
-0.0615999996662
0.048599999398
-0.0755999982357
-0.0777999982238
-0.0494000017643
0.0597999989986
0.143299996853
0.0348000004888
-0.109600000083
-0.603100001812
-0.064099997282
-0.0894000008702
-0.0894000008702
0.0344999991357
0.0344999991357
0.0344999991357
0.0421000011265
0.0421000011265
0.0439999997616
0.0439999997616
0.0458999983966
0.0458999983966
0.397399991751
0.0663999989629
0.0322000011802
0.0322000011802
0.0322000011802
0.0322000011802
0.0322000011802
0.0322000011802

>  <partial_bond_orders>  (401) 
1.0
1.0
1.0
1.0
1.0
1.0
1.0
1.0
1.0
1.0
1.0
1.0
1.0
1.0
1.0
1.0
1.0
1.0
1.0
1.0
1.0
1.0
1.0
1.0
1.0
1.0
1.0
1.0
1.0
1.0
1.0

>  <atom_types>  (401) 
c3
c3
hc
c3
c3
c3
hc
c3
h1
c3
oh
c3
c3
c3
hc
hc
hc
hc
hc
hc
hc
hc
hc
ho
hc
hc
hc
hc
hc
hc
hc

>  <target>  (401) 
-3.2

>  <cal>  (401) 
-3.35

$$$$
mobley_2518989
     RDKit          3D

 40 41  0  0  1  0  0  0  0  0999 V2000
   -2.7610   -0.3240    3.1290 C   0  0  0  0  0  0  0  0  0  0  0  0
   -2.8810    0.0440    1.6650 C   0  0  0  0  0  0  0  0  0  0  0  0
   -1.6030    0.4160    1.1760 O   0  0  0  0  0  0  0  0  0  0  0  0
   -1.4160    0.8680   -0.3840 P   0  0  0  0  0  0  0  0  0  0  0  0
   -2.5010    2.4390   -0.8380 S   0  0  0  0  0  0  0  0  0  0  0  0
   -1.9790   -0.4970   -1.0860 O   0  0  0  0  0  0  0  0  0  0  0  0
   -2.0250   -0.6110   -2.4990 C   0  0  0  0  0  0  0  0  0  0  0  0
   -2.5850   -1.9680   -2.8680 C   0  0  0  0  0  0  0  0  0  0  0  0
    0.6780    0.9400   -0.7610 S   0  0  0  0  0  0  0  0  0  0  0  0
    1.3240   -0.7340   -0.4540 C   0  0  0  0  0  0  0  0  0  0  0  0
    2.6600   -0.9700   -1.1600 C   0  0  0  0  0  0  0  0  0  0  0  0
    3.3300   -2.6020   -0.8850 Cl  0  0  0  0  0  0  0  0  0  0  0  0
    1.4080   -0.9930    0.9590 N   0  0  0  0  0  0  0  0  0  0  0  0
    2.1750   -0.2490    1.8400 C   0  0  0  0  0  0  0  0  0  0  0  0
    2.8890    0.7150    1.6340 O   0  0  0  0  0  0  0  0  0  0  0  0
    1.9760   -0.8530    3.1570 C   0  0  0  0  0  0  0  0  0  0  0  0
    2.5070   -0.5040    4.3820 C   0  0  0  0  0  0  0  0  0  0  0  0
    2.1290   -1.2760    5.4840 C   0  0  0  0  0  0  0  0  0  0  0  0
    1.2420   -2.3630    5.3380 C   0  0  0  0  0  0  0  0  0  0  0  0
    0.7160   -2.6980    4.0870 C   0  0  0  0  0  0  0  0  0  0  0  0
    1.1030   -1.9220    3.0140 C   0  0  0  0  0  0  0  0  0  0  0  0
    0.7320   -2.0170    1.6020 C   0  0  0  0  0  0  0  0  0  0  0  0
   -0.0270   -2.8540    1.1500 O   0  0  0  0  0  0  0  0  0  0  0  0
    0.0000    0.0000    0.0000 H   0  0  0  0  0  0  0  0  0  0  0  0
    0.0000    0.0000    0.0000 H   0  0  0  0  0  0  0  0  0  0  0  0
    0.0000    0.0000    0.0000 H   0  0  0  0  0  0  0  0  0  0  0  0
    0.0000    0.0000    0.0000 H   0  0  0  0  0  0  0  0  0  0  0  0
    0.0000    0.0000    0.0000 H   0  0  0  0  0  0  0  0  0  0  0  0
    0.0000    0.0000    0.0000 H   0  0  0  0  0  0  0  0  0  0  0  0
    0.0000    0.0000    0.0000 H   0  0  0  0  0  0  0  0  0  0  0  0
    0.0000    0.0000    0.0000 H   0  0  0  0  0  0  0  0  0  0  0  0
    0.0000    0.0000    0.0000 H   0  0  0  0  0  0  0  0  0  0  0  0
    0.0000    0.0000    0.0000 H   0  0  0  0  0  0  0  0  0  0  0  0
    0.0000    0.0000    0.0000 H   0  0  0  0  0  0  0  0  0  0  0  0
    0.0000    0.0000    0.0000 H   0  0  0  0  0  0  0  0  0  0  0  0
    0.0000    0.0000    0.0000 H   0  0  0  0  0  0  0  0  0  0  0  0
    0.0000    0.0000    0.0000 H   0  0  0  0  0  0  0  0  0  0  0  0
    0.0000    0.0000    0.0000 H   0  0  0  0  0  0  0  0  0  0  0  0
    0.0000    0.0000    0.0000 H   0  0  0  0  0  0  0  0  0  0  0  0
    0.0000    0.0000    0.0000 H   0  0  0  0  0  0  0  0  0  0  0  0
  1  2  1  0
  2  3  1  0
  3  4  1  0
  4  5  2  0
  4  6  1  0
  6  7  1  0
  7  8  1  0
  4  9  1  0
  9 10  1  0
 10 11  1  0
 11 12  1  0
 10 13  1  0
 13 22  1  0
 13 14  1  0
 14 15  2  0
 14 16  1  0
 16 21  2  0
 16 17  1  0
 17 18  2  0
 18 19  1  0
 19 20  2  0
 20 21  1  0
 21 22  1  0
 22 23  2  0
  1 24  1  0
  1 25  1  0
  1 26  1  0
  2 27  1  0
  2 28  1  0
  7 29  1  0
  7 30  1  0
  8 31  1  0
  8 32  1  0
  8 33  1  0
 10 34  1  0
 11 35  1  0
 11 36  1  0
 17 37  1  0
 18 38  1  0
 19 39  1  0
 20 40  1  0
M  END
>  <partial_charges>  (402) 
-0.0961000025272
0.132400006056
-0.497500002384
0.915899991989
-0.482699990273
-0.497500002384
0.132400006056
-0.0961000025272
-0.55529999733
0.407200008631
0.118900001049
0.00270000007004
-0.178000003099
-0.503600001335
0.735700011253
-0.54439997673
-0.133900001645
-0.0593000017107
-0.114299997687
-0.114299997687
-0.0593000017107
-0.133900001645
0.735700011253
-0.54439997673
0.055799998343
0.055799998343
0.055799998343
0.0653000026941
0.0653000026941
0.0653000026941
0.0653000026941
0.055799998343
0.055799998343
0.055799998343
0.108099997044
0.108099997044
0.16210000217
0.146400004625
0.146400004625
0.16210000217

>  <partial_bond_orders>  (402) 
1.0
1.0
1.0
2.0
1.0
1.0
1.0
1.0
1.0
1.0
1.0
1.0
1.0
1.0
1.0
2.0
1.0
2.0
1.0
2.0
1.0
2.0
1.0
1.0
2.0
1.0
1.0
1.0
1.0
1.0
1.0
1.0
1.0
1.0
1.0
1.0
1.0
1.0
1.0
1.0
1.0

>  <atom_types>  (402) 
c3
c3
os
p5
s
os
c3
c3
ss
c3
h2
c3
cl
n
c
o
ca
ca
ca
ca
ca
ca
c
o
hc
hc
hc
h1
h1
h1
h1
hc
hc
hc
h1
h1
ha
ha
ha
ha

>  <target>  (402) 
-5.74

>  <cal>  (402) 
-16.515

$$$$
mobley_1160109
     RDKit          3D

 27 27  0  0  1  0  0  0  0  0999 V2000
   -1.9500    0.6620   -1.8810 C   0  0  0  0  0  0  0  0  0  0  0  0
   -0.9390   -0.1140   -1.0420 C   0  0  0  0  0  0  0  0  0  0  0  0
   -1.5180   -0.4440    0.3360 C   0  0  0  0  0  0  0  0  0  0  0  0
   -0.4990   -1.1560    1.2260 C   0  0  0  0  0  0  0  0  0  0  0  0
    0.7690   -0.3090    1.4030 C   0  0  0  0  0  0  0  0  0  0  0  0
    1.3920    0.0280    0.0460 C   0  0  0  0  0  0  0  0  0  0  0  0
    0.3640    0.6580   -0.8710 C   0  0  0  0  0  0  0  0  0  0  0  0
    0.6200    1.6840   -1.4990 O   0  0  0  0  0  0  0  0  0  0  0  0
    1.7620   -1.0090    2.2820 C   0  0  0  0  0  0  0  0  0  0  0  0
    2.2700   -2.2080    1.9630 C   0  0  0  0  0  0  0  0  0  0  0  0
    2.1550   -0.2910    3.5390 C   0  0  0  0  0  0  0  0  0  0  0  0
    0.0000    0.0000    0.0000 H   0  0  0  0  0  0  0  0  0  0  0  0
    0.0000    0.0000    0.0000 H   0  0  0  0  0  0  0  0  0  0  0  0
    0.0000    0.0000    0.0000 H   0  0  0  0  0  0  0  0  0  0  0  0
    0.0000    0.0000    0.0000 H   0  0  0  0  0  0  0  0  0  0  0  0
    0.0000    0.0000    0.0000 H   0  0  0  0  0  0  0  0  0  0  0  0
    0.0000    0.0000    0.0000 H   0  0  0  0  0  0  0  0  0  0  0  0
    0.0000    0.0000    0.0000 H   0  0  0  0  0  0  0  0  0  0  0  0
    0.0000    0.0000    0.0000 H   0  0  0  0  0  0  0  0  0  0  0  0
    0.0000    0.0000    0.0000 H   0  0  0  0  0  0  0  0  0  0  0  0
    0.0000    0.0000    0.0000 H   0  0  0  0  0  0  0  0  0  0  0  0
    0.0000    0.0000    0.0000 H   0  0  0  0  0  0  0  0  0  0  0  0
    0.0000    0.0000    0.0000 H   0  0  0  0  0  0  0  0  0  0  0  0
    0.0000    0.0000    0.0000 H   0  0  0  0  0  0  0  0  0  0  0  0
    0.0000    0.0000    0.0000 H   0  0  0  0  0  0  0  0  0  0  0  0
    0.0000    0.0000    0.0000 H   0  0  0  0  0  0  0  0  0  0  0  0
    0.0000    0.0000    0.0000 H   0  0  0  0  0  0  0  0  0  0  0  0
  1  2  1  0
  2  7  1  0
  2  3  1  0
  3  4  1  0
  4  5  1  0
  5  6  1  0
  6  7  1  0
  7  8  2  0
  5  9  1  0
  9 10  2  3
  9 11  1  0
  1 12  1  0
  1 13  1  0
  1 14  1  0
  2 15  1  0
  3 16  1  0
  3 17  1  0
  4 18  1  0
  4 19  1  0
  5 20  1  0
  6 21  1  0
  6 22  1  0
 10 23  1  0
 10 24  1  0
 11 25  1  0
 11 26  1  0
 11 27  1  0
M  END
>  <partial_charges>  (403) 
-0.0842000022531
-0.161400005221
0.068599998951
-0.0720999985933
-0.0778999999166
-0.0238000005484
0.0586999990046
-0.177000001073
0.567499995232
-0.530099987984
-0.107299998403
-0.223800003529
-0.0631000027061
0.0439000017941
0.0439000017941
0.0439000017941
0.0487000010908
0.0487000010908
0.0478999987245
0.0478999987245
0.0714000016451
0.0714000016451
0.113600000739
0.113600000739
0.0438000001013
0.0438000001013
0.0438000001013

>  <partial_bond_orders>  (403) 
1.0
1.0
1.0
1.0
1.0
1.0
1.0
1.0
1.0
2.0
1.0
2.0
1.0
1.0
1.0
1.0
1.0
1.0
1.0
1.0
1.0
1.0
1.0
1.0
1.0
1.0
1.0

>  <atom_types>  (403) 
c3
c3
hc
c3
c3
c3
hc
c3
c
o
c2
c2
c3
hc
hc
hc
hc
hc
hc
hc
hc
hc
ha
ha
hc
hc
hc

>  <target>  (403) 
-3.75

>  <cal>  (403) 
-3.344

$$$$
mobley_9139060
     RDKit          3D

 24 24  0  0  0  0  0  0  0  0999 V2000
   -0.6220   -2.5760    0.6710 C   0  0  0  0  0  0  0  0  0  0  0  0
    0.4200   -1.6680    1.3220 C   0  0  0  0  0  0  0  0  0  0  0  0
    0.8700   -0.5730    0.3460 C   0  0  0  0  0  0  0  0  0  0  0  0
    1.8750    0.3800    0.9910 C   0  0  0  0  0  0  0  0  0  0  0  0
    1.3240    0.9950    2.2840 C   0  0  0  0  0  0  0  0  0  0  0  0
    0.8740   -0.1000    3.2590 C   0  0  0  0  0  0  0  0  0  0  0  0
   -0.1310   -1.0530    2.6150 C   0  0  0  0  0  0  0  0  0  0  0  0
    2.3640    1.9030    2.9350 C   0  0  0  0  0  0  0  0  0  0  0  0
    0.0000    0.0000    0.0000 H   0  0  0  0  0  0  0  0  0  0  0  0
    0.0000    0.0000    0.0000 H   0  0  0  0  0  0  0  0  0  0  0  0
    0.0000    0.0000    0.0000 H   0  0  0  0  0  0  0  0  0  0  0  0
    0.0000    0.0000    0.0000 H   0  0  0  0  0  0  0  0  0  0  0  0
    0.0000    0.0000    0.0000 H   0  0  0  0  0  0  0  0  0  0  0  0
    0.0000    0.0000    0.0000 H   0  0  0  0  0  0  0  0  0  0  0  0
    0.0000    0.0000    0.0000 H   0  0  0  0  0  0  0  0  0  0  0  0
    0.0000    0.0000    0.0000 H   0  0  0  0  0  0  0  0  0  0  0  0
    0.0000    0.0000    0.0000 H   0  0  0  0  0  0  0  0  0  0  0  0
    0.0000    0.0000    0.0000 H   0  0  0  0  0  0  0  0  0  0  0  0
    0.0000    0.0000    0.0000 H   0  0  0  0  0  0  0  0  0  0  0  0
    0.0000    0.0000    0.0000 H   0  0  0  0  0  0  0  0  0  0  0  0
    0.0000    0.0000    0.0000 H   0  0  0  0  0  0  0  0  0  0  0  0
    0.0000    0.0000    0.0000 H   0  0  0  0  0  0  0  0  0  0  0  0
    0.0000    0.0000    0.0000 H   0  0  0  0  0  0  0  0  0  0  0  0
    0.0000    0.0000    0.0000 H   0  0  0  0  0  0  0  0  0  0  0  0
  1  2  1  0
  2  7  1  0
  2  3  1  0
  3  4  1  0
  4  5  1  0
  5  6  1  0
  6  7  1  0
  5  8  1  0
  1  9  1  0
  1 10  1  0
  1 11  1  0
  2 12  1  0
  3 13  1  0
  3 14  1  0
  4 15  1  0
  4 16  1  0
  5 17  1  0
  6 18  1  0
  6 19  1  0
  7 20  1  0
  7 21  1  0
  8 22  1  0
  8 23  1  0
  8 24  1  0
M  END
>  <partial_charges>  (404) 
-0.0891000032425
-0.0649999976158
-0.0723000019789
-0.0723000019789
-0.0649999976158
-0.0723000019789
-0.0723000019789
-0.0891000032425
0.0329999998212
0.0329999998212
0.0329999998212
0.0456000007689
0.0384999997914
0.0384999997914
0.0384999997914
0.0384999997914
0.0456000007689
0.0384999997914
0.0384999997914
0.0384999997914
0.0384999997914
0.0329999998212
0.0329999998212
0.0329999998212

>  <partial_bond_orders>  (404) 
1.0
1.0
1.0
1.0
1.0
1.0
1.0
1.0
1.0
1.0
1.0
1.0
1.0
1.0
1.0
1.0
1.0
1.0
1.0
1.0
1.0
1.0
1.0
1.0

>  <atom_types>  (404) 
c3
c3
c3
c3
c3
c3
c3
c3
hc
hc
hc
hc
hc
hc
hc
hc
hc
hc
hc
hc
hc
hc
hc
hc

>  <target>  (404) 
2.11

>  <cal>  (404) 
1.918

$$$$
mobley_9185328
     RDKit          3D

 13 12  0  0  0  0  0  0  0  0999 V2000
    0.9920    0.0880   -0.4550 C   0  0  0  0  0  0  0  0  0  0  0  0
    1.2280    1.5170   -0.9220 C   0  0  0  0  0  0  0  0  0  0  0  0
    2.6190    1.7220   -1.5110 C   0  0  0  0  0  0  0  0  0  0  0  0
    2.8340    3.0730   -1.9500 N   0  0  0  0  0  0  0  0  0  0  0  0
    0.0000    0.0000    0.0000 H   0  0  0  0  0  0  0  0  0  0  0  0
    0.0000    0.0000    0.0000 H   0  0  0  0  0  0  0  0  0  0  0  0
    0.0000    0.0000    0.0000 H   0  0  0  0  0  0  0  0  0  0  0  0
    0.0000    0.0000    0.0000 H   0  0  0  0  0  0  0  0  0  0  0  0
    0.0000    0.0000    0.0000 H   0  0  0  0  0  0  0  0  0  0  0  0
    0.0000    0.0000    0.0000 H   0  0  0  0  0  0  0  0  0  0  0  0
    0.0000    0.0000    0.0000 H   0  0  0  0  0  0  0  0  0  0  0  0
    0.0000    0.0000    0.0000 H   0  0  0  0  0  0  0  0  0  0  0  0
    0.0000    0.0000    0.0000 H   0  0  0  0  0  0  0  0  0  0  0  0
  1  2  1  0
  2  3  1  0
  3  4  1  0
  1  5  1  0
  1  6  1  0
  1  7  1  0
  2  8  1  0
  2  9  1  0
  3 10  1  0
  3 11  1  0
  4 12  1  0
  4 13  1  0
M  END
>  <partial_charges>  (405) 
-0.0876000002027
-0.12349999696
0.15189999342
-0.90649998188
0.0344999991357
0.0344999991357
0.0344999991357
0.0355000011623
0.0355000011623
0.0516000017524
0.0516000017524
0.344000011683
0.344000011683

>  <partial_bond_orders>  (405) 
1.0
1.0
1.0
1.0
1.0
1.0
1.0
1.0
1.0
1.0
1.0
1.0

>  <atom_types>  (405) 
c3
c3
c3
n3
hc
hc
hc
hc
hc
h1
h1
hn
hn

>  <target>  (405) 
-4.39

>  <cal>  (405) 
-3.053

$$$$
mobley_2023925
     RDKit          3D

 12 11  0  0  1  0  0  0  0  0999 V2000
    0.5870   -0.0500   -0.0820 C   0  0  0  0  0  0  0  0  0  0  0  0
    1.1040   -0.7850    1.1360 C   0  0  0  0  0  0  0  0  0  0  0  0
    0.5220   -0.3480    2.2730 F   0  0  0  0  0  0  0  0  0  0  0  0
    2.4390   -0.6090    1.2650 F   0  0  0  0  0  0  0  0  0  0  0  0
    0.8830   -2.1140    1.0370 F   0  0  0  0  0  0  0  0  0  0  0  0
   -0.8140   -0.2970   -0.1850 O   0  0  0  0  0  0  0  0  0  0  0  0
   -1.5190    0.7700   -0.7960 C   0  0  0  0  0  0  0  0  0  0  0  0
   -2.8330    0.4360   -0.8160 F   0  0  0  0  0  0  0  0  0  0  0  0
   -1.4050    1.8720   -0.0150 F   0  0  0  0  0  0  0  0  0  0  0  0
    1.4150   -0.6520   -1.5420 Cl  0  0  0  0  0  0  0  0  0  0  0  0
    0.0000    0.0000    0.0000 H   0  0  0  0  0  0  0  0  0  0  0  0
    0.0000    0.0000    0.0000 H   0  0  0  0  0  0  0  0  0  0  0  0
  1  2  1  0
  2  3  1  0
  2  4  1  0
  2  5  1  0
  1  6  1  0
  6  7  1  0
  7  8  1  0
  7  9  1  0
  1 10  1  0
  1 11  1  0
  7 12  1  0
M  END
>  <partial_charges>  (406) 
0.19810000062
0.110299997032
0.648000001907
-0.215499997139
-0.215499997139
-0.215499997139
-0.431300014257
0.590200006962
-0.219899997115
-0.219899997115
-0.138999998569
0.110299997032

>  <partial_bond_orders>  (406) 
1.0
1.0
1.0
1.0
1.0
1.0
1.0
1.0
1.0
1.0
1.0

>  <atom_types>  (406) 
c3
h2
c3
f
f
f
os
c3
f
f
cl
h3

>  <target>  (406) 
0.1

>  <cal>  (406) 
-1.156

$$$$
mobley_3266352
     RDKit          3D

 23 23  0  0  1  0  0  0  0  0999 V2000
    1.1030   -1.9180   -2.3120 C   0  0  0  0  0  0  0  0  0  0  0  0
    1.9290   -1.0140   -1.5220 N   0  0  0  0  0  0  0  0  0  0  0  0
    2.7910   -0.0760   -2.2300 C   0  0  0  0  0  0  0  0  0  0  0  0
    4.1460   -0.6730   -2.4730 C   0  0  0  0  0  0  0  0  0  0  0  0
    4.0230   -1.7940   -3.2180 F   0  0  0  0  0  0  0  0  0  0  0  0
    4.9550    0.1750   -3.1410 F   0  0  0  0  0  0  0  0  0  0  0  0
    4.7570   -1.0140   -1.3180 F   0  0  0  0  0  0  0  0  0  0  0  0
    1.8850   -1.0360   -0.1120 C   0  0  0  0  0  0  0  0  0  0  0  0
    2.9370   -0.4950    0.6270 C   0  0  0  0  0  0  0  0  0  0  0  0
    2.8930   -0.5160    2.0210 C   0  0  0  0  0  0  0  0  0  0  0  0
    1.7980   -1.0780    2.6760 C   0  0  0  0  0  0  0  0  0  0  0  0
    0.7460   -1.6200    1.9370 C   0  0  0  0  0  0  0  0  0  0  0  0
    0.7890   -1.5990    0.5420 C   0  0  0  0  0  0  0  0  0  0  0  0
    0.0000    0.0000    0.0000 H   0  0  0  0  0  0  0  0  0  0  0  0
    0.0000    0.0000    0.0000 H   0  0  0  0  0  0  0  0  0  0  0  0
    0.0000    0.0000    0.0000 H   0  0  0  0  0  0  0  0  0  0  0  0
    0.0000    0.0000    0.0000 H   0  0  0  0  0  0  0  0  0  0  0  0
    0.0000    0.0000    0.0000 H   0  0  0  0  0  0  0  0  0  0  0  0
    0.0000    0.0000    0.0000 H   0  0  0  0  0  0  0  0  0  0  0  0
    0.0000    0.0000    0.0000 H   0  0  0  0  0  0  0  0  0  0  0  0
    0.0000    0.0000    0.0000 H   0  0  0  0  0  0  0  0  0  0  0  0
    0.0000    0.0000    0.0000 H   0  0  0  0  0  0  0  0  0  0  0  0
    0.0000    0.0000    0.0000 H   0  0  0  0  0  0  0  0  0  0  0  0
  1  2  1  0
  2  3  1  0
  3  4  1  0
  4  5  1  0
  4  6  1  0
  4  7  1  0
  2  8  1  0
  8 13  2  0
  8  9  1  0
  9 10  2  0
 10 11  1  0
 11 12  2  0
 12 13  1  0
  1 14  1  0
  1 15  1  0
  1 16  1  0
  3 17  1  0
  3 18  1  0
  9 19  1  0
 10 20  1  0
 11 21  1  0
 12 22  1  0
 13 23  1  0
M  END
>  <partial_charges>  (407) 
0.20870000124
-0.705699980259
0.216700002551
0.574699997902
-0.240700006485
-0.240700006485
-0.240700006485
0.186599999666
-0.183799996972
-0.0938000008464
-0.1643999964
-0.0938000008464
-0.183799996972
0.0441999994218
0.0441999994218
0.0441999994218
0.0839999988675
0.0839999988675
0.131500005722
0.131699994206
0.133799999952
0.131699994206
0.131500005722

>  <partial_bond_orders>  (407) 
1.0
1.0
1.0
1.0
1.0
1.0
1.0
2.0
1.0
2.0
1.0
2.0
1.0
1.0
1.0
1.0
1.0
1.0
1.0
1.0
1.0
1.0
1.0

>  <atom_types>  (407) 
c3
nh
c3
c3
f
f
f
ca
ca
ca
ca
ca
ca
h1
h1
h1
h1
h1
ha
ha
ha
ha
ha

>  <target>  (407) 
-1.92

>  <cal>  (407) 
-3.964

$$$$
mobley_3843583
     RDKit          3D

 20 21  0  0  0  0  0  0  0  0999 V2000
   -0.4970   -2.0340    0.4940 C   0  0  0  0  0  0  0  0  0  0  0  0
    0.3500   -1.0280    0.0390 C   0  0  0  0  0  0  0  0  0  0  0  0
    1.6480   -1.3370   -0.3660 C   0  0  0  0  0  0  0  0  0  0  0  0
    2.1170   -2.6600   -0.3220 C   0  0  0  0  0  0  0  0  0  0  0  0
    1.2560   -3.6840    0.1400 C   0  0  0  0  0  0  0  0  0  0  0  0
   -0.0480   -3.3540    0.5450 C   0  0  0  0  0  0  0  0  0  0  0  0
    1.7240   -5.0070    0.1850 C   0  0  0  0  0  0  0  0  0  0  0  0
    3.0230   -5.3170   -0.2210 C   0  0  0  0  0  0  0  0  0  0  0  0
    3.8690   -4.3100   -0.6760 C   0  0  0  0  0  0  0  0  0  0  0  0
    3.4210   -2.9900   -0.7270 C   0  0  0  0  0  0  0  0  0  0  0  0
    4.3230   -2.0050   -1.1970 N   0  0  0  0  0  0  0  0  0  0  0  0
    0.0000    0.0000    0.0000 H   0  0  0  0  0  0  0  0  0  0  0  0
    0.0000    0.0000    0.0000 H   0  0  0  0  0  0  0  0  0  0  0  0
    0.0000    0.0000    0.0000 H   0  0  0  0  0  0  0  0  0  0  0  0
    0.0000    0.0000    0.0000 H   0  0  0  0  0  0  0  0  0  0  0  0
    0.0000    0.0000    0.0000 H   0  0  0  0  0  0  0  0  0  0  0  0
    0.0000    0.0000    0.0000 H   0  0  0  0  0  0  0  0  0  0  0  0
    0.0000    0.0000    0.0000 H   0  0  0  0  0  0  0  0  0  0  0  0
    0.0000    0.0000    0.0000 H   0  0  0  0  0  0  0  0  0  0  0  0
    0.0000    0.0000    0.0000 H   0  0  0  0  0  0  0  0  0  0  0  0
  1  6  2  0
  1  2  1  0
  2  3  2  0
  3  4  1  0
  4 10  1  0
  4  5  2  0
  5  6  1  0
  5  7  1  0
  7  8  2  0
  8  9  1  0
  9 10  2  0
 10 11  1  0
  1 12  1  0
  2 13  1  0
  3 14  1  0
  6 15  1  0
  7 16  1  0
  8 17  1  0
  9 18  1  0
 11 19  1  0
 11 20  1  0
M  END
>  <partial_charges>  (408) 
-0.120999999344
-0.138699993491
-0.111299999058
-0.0663999989629
-0.0054999999702
-0.124799996614
-0.163900002837
-0.085199996829
-0.212200000882
0.153600007296
-0.818000018597
0.131400004029
0.130799993873
0.125900000334
0.132899999619
0.132499992847
0.129899993539
0.130600005388
0.389800012112
0.389800012112

>  <partial_bond_orders>  (408) 
2.0
1.0
2.0
1.0
2.0
1.0
1.0
2.0
1.0
2.0
1.0
1.0
1.0
1.0
1.0
1.0
1.0
1.0
1.0
1.0
1.0

>  <atom_types>  (408) 
ca
ca
ca
ca
ca
ca
ca
ca
ca
ca
nh
ha
ha
ha
ha
ha
ha
ha
hn
hn

>  <target>  (408) 
-7.28

>  <cal>  (408) 
-7.777

$$$$
mobley_9197172
     RDKit          3D

 24 23  0  0  0  0  0  0  0  0999 V2000
   -2.7370   -2.8290   -1.0110 C   0  0  0  0  0  0  0  0  0  0  0  0
   -1.4790   -2.0360   -1.3270 C   0  0  0  0  0  0  0  0  0  0  0  0
   -1.1010   -1.1040   -0.1750 C   0  0  0  0  0  0  0  0  0  0  0  0
    0.1650   -0.3080   -0.4960 C   0  0  0  0  0  0  0  0  0  0  0  0
    0.5440    0.6240    0.6560 C   0  0  0  0  0  0  0  0  0  0  0  0
    1.8110    1.4200    0.3330 C   0  0  0  0  0  0  0  0  0  0  0  0
    2.1820    2.3340    1.4630 C   0  0  0  0  0  0  0  0  0  0  0  0
    2.2710    3.6640    1.3510 C   0  0  0  0  0  0  0  0  0  0  0  0
    0.0000    0.0000    0.0000 H   0  0  0  0  0  0  0  0  0  0  0  0
    0.0000    0.0000    0.0000 H   0  0  0  0  0  0  0  0  0  0  0  0
    0.0000    0.0000    0.0000 H   0  0  0  0  0  0  0  0  0  0  0  0
    0.0000    0.0000    0.0000 H   0  0  0  0  0  0  0  0  0  0  0  0
    0.0000    0.0000    0.0000 H   0  0  0  0  0  0  0  0  0  0  0  0
    0.0000    0.0000    0.0000 H   0  0  0  0  0  0  0  0  0  0  0  0
    0.0000    0.0000    0.0000 H   0  0  0  0  0  0  0  0  0  0  0  0
    0.0000    0.0000    0.0000 H   0  0  0  0  0  0  0  0  0  0  0  0
    0.0000    0.0000    0.0000 H   0  0  0  0  0  0  0  0  0  0  0  0
    0.0000    0.0000    0.0000 H   0  0  0  0  0  0  0  0  0  0  0  0
    0.0000    0.0000    0.0000 H   0  0  0  0  0  0  0  0  0  0  0  0
    0.0000    0.0000    0.0000 H   0  0  0  0  0  0  0  0  0  0  0  0
    0.0000    0.0000    0.0000 H   0  0  0  0  0  0  0  0  0  0  0  0
    0.0000    0.0000    0.0000 H   0  0  0  0  0  0  0  0  0  0  0  0
    0.0000    0.0000    0.0000 H   0  0  0  0  0  0  0  0  0  0  0  0
    0.0000    0.0000    0.0000 H   0  0  0  0  0  0  0  0  0  0  0  0
  1  2  1  0
  2  3  1  0
  3  4  1  0
  4  5  1  0
  5  6  1  0
  6  7  1  0
  7  8  2  3
  1  9  1  0
  1 10  1  0
  1 11  1  0
  2 12  1  0
  2 13  1  0
  3 14  1  0
  3 15  1  0
  4 16  1  0
  4 17  1  0
  5 18  1  0
  5 19  1  0
  6 20  1  0
  6 21  1  0
  7 22  1  0
  8 23  1  0
  8 24  1  0
M  END
>  <partial_charges>  (409) 
-0.0932999998331
-0.077500000596
-0.0780000016093
-0.0790000036359
-0.0718000009656
-0.0531999990344
-0.158899992704
-0.225199997425
0.0324999988079
0.0324999988079
0.0324999988079
0.0370999984443
0.0370999984443
0.0384999997914
0.0384999997914
0.0423000007868
0.0423000007868
0.0381999984384
0.0381999984384
0.0452999994159
0.0452999994159
0.116599999368
0.109999999404
0.109999999404

>  <partial_bond_orders>  (409) 
1.0
1.0
1.0
1.0
1.0
1.0
2.0
1.0
1.0
1.0
1.0
1.0
1.0
1.0
1.0
1.0
1.0
1.0
1.0
1.0
1.0
1.0
1.0

>  <atom_types>  (409) 
c3
c3
c3
c3
c3
c3
c2
c2
hc
hc
hc
hc
hc
hc
hc
hc
hc
hc
hc
hc
hc
ha
ha
ha

>  <target>  (409) 
1.92

>  <cal>  (409) 
2.895

$$$$
mobley_9740891
     RDKit          3D

 13 13  0  0  0  0  0  0  0  0999 V2000
    1.8850   -1.0360   -0.1120 C   0  0  0  0  0  0  0  0  0  0  0  0
    2.9210   -1.6310    0.6080 C   0  0  0  0  0  0  0  0  0  0  0  0
    2.8780   -1.6520    2.0020 C   0  0  0  0  0  0  0  0  0  0  0  0
    1.8000   -1.0790    2.6760 C   0  0  0  0  0  0  0  0  0  0  0  0
    0.7640   -0.4840    1.9550 C   0  0  0  0  0  0  0  0  0  0  0  0
    0.8070   -0.4630    0.5610 C   0  0  0  0  0  0  0  0  0  0  0  0
   -0.6020    0.2440    2.7310 Cl  0  0  0  0  0  0  0  0  0  0  0  0
    1.7560   -1.0990    4.1110 C   0  0  0  0  0  0  0  0  0  0  0  0
    1.7220   -1.1160    5.2650 N   0  0  0  0  0  0  0  0  0  0  0  0
    4.1940   -2.4050    2.8380 Cl  0  0  0  0  0  0  0  0  0  0  0  0
    0.0000    0.0000    0.0000 H   0  0  0  0  0  0  0  0  0  0  0  0
    0.0000    0.0000    0.0000 H   0  0  0  0  0  0  0  0  0  0  0  0
    0.0000    0.0000    0.0000 H   0  0  0  0  0  0  0  0  0  0  0  0
  1  6  2  0
  1  2  1  0
  2  3  2  0
  3  4  1  0
  4  5  2  0
  5  6  1  0
  5  7  1  0
  4  8  1  0
  8  9  3  0
  3 10  1  0
  1 11  1  0
  2 12  1  0
  6 13  1  0
M  END
>  <partial_charges>  (410) 
-0.091899998486
-0.131999999285
0.0549000017345
-0.00439999997616
0.0549000017345
-0.131999999285
-0.056400001049
0.23180000484
-0.33259999752
-0.056400001049
0.149200007319
0.157499998808
0.157499998808

>  <partial_bond_orders>  (410) 
2.0
1.0
2.0
1.0
2.0
1.0
1.0
1.0
3.0
1.0
1.0
1.0
1.0

>  <atom_types>  (410) 
ca
ca
ca
ca
ca
ca
cl
cg
n1
cl
ha
ha
ha

>  <target>  (410) 
-4.71

>  <cal>  (410) 
-3.32

$$$$
mobley_5747188
     RDKit          3D

 17 17  0  0  0  0  0  0  0  0999 V2000
    1.9620   -1.0300   -1.6050 C   0  0  0  0  0  0  0  0  0  0  0  0
    1.8850   -1.0360   -0.1120 C   0  0  0  0  0  0  0  0  0  0  0  0
    2.9210   -1.6310    0.6080 C   0  0  0  0  0  0  0  0  0  0  0  0
    2.8780   -1.6520    2.0020 C   0  0  0  0  0  0  0  0  0  0  0  0
    1.8000   -1.0790    2.6760 C   0  0  0  0  0  0  0  0  0  0  0  0
    0.7640   -0.4840    1.9550 C   0  0  0  0  0  0  0  0  0  0  0  0
    0.8070   -0.4630    0.5610 C   0  0  0  0  0  0  0  0  0  0  0  0
   -0.2610    0.1480   -0.1530 N   0  0  0  0  0  0  0  0  0  0  0  0
   -1.2450   -0.5520   -0.4880 O   0  0  0  0  0  0  0  0  0  0  0  0
   -0.1860    1.3700   -0.4260 O   0  0  0  0  0  0  0  0  0  0  0  0
    0.0000    0.0000    0.0000 H   0  0  0  0  0  0  0  0  0  0  0  0
    0.0000    0.0000    0.0000 H   0  0  0  0  0  0  0  0  0  0  0  0
    0.0000    0.0000    0.0000 H   0  0  0  0  0  0  0  0  0  0  0  0
    0.0000    0.0000    0.0000 H   0  0  0  0  0  0  0  0  0  0  0  0
    0.0000    0.0000    0.0000 H   0  0  0  0  0  0  0  0  0  0  0  0
    0.0000    0.0000    0.0000 H   0  0  0  0  0  0  0  0  0  0  0  0
    0.0000    0.0000    0.0000 H   0  0  0  0  0  0  0  0  0  0  0  0
  1  2  1  0
  2  7  2  0
  2  3  1  0
  3  4  2  0
  4  5  1  0
  5  6  2  0
  6  7  1  0
  7  8  1  0
  8  9  1  0
  8 10  1  0
  1 11  1  0
  1 12  1  0
  1 13  1  0
  3 14  1  0
  4 15  1  0
  5 16  1  0
  6 17  1  0
M  CHG  2   9  -1  10  -1
M  END
>  <partial_charges>  (411) 
-0.0741000026464
-0.0240000002086
-0.131099998951
-0.0983000025153
-0.130700007081
-0.082999996841
-0.14849999547
0.30529999733
-0.197300001979
-0.197300001979
0.0619000010192
0.0619000010192
0.0619000010192
0.14620000124
0.143500000238
0.146999999881
0.156299993396

>  <partial_bond_orders>  (411) 
1.0
2.0
1.0
2.0
1.0
2.0
1.0
1.0
1.0
1.0
1.0
1.0
1.0
1.0
1.0
1.0
1.0

>  <atom_types>  (411) 
c3
ca
ca
ca
ca
ca
ca
no
o
o
hc
hc
hc
ha
ha
ha
ha

>  <target>  (411) 
-3.58

>  <cal>  (411) 
-3.133

$$$$
mobley_7047032
     RDKit          3D

 14 13  0  0  0  0  0  0  0  0999 V2000
    0.7750    0.2120   -0.7460 C   0  0  0  0  0  0  0  0  0  0  0  0
    0.5640    1.5790   -1.3990 C   0  0  0  0  0  0  0  0  0  0  0  0
   -0.8100    1.6430   -2.0700 C   0  0  0  0  0  0  0  0  0  0  0  0
    1.6690    1.8600   -2.4170 C   0  0  0  0  0  0  0  0  0  0  0  0
    0.6330    2.8390   -0.1190 Cl  0  0  0  0  0  0  0  0  0  0  0  0
    0.0000    0.0000    0.0000 H   0  0  0  0  0  0  0  0  0  0  0  0
    0.0000    0.0000    0.0000 H   0  0  0  0  0  0  0  0  0  0  0  0
    0.0000    0.0000    0.0000 H   0  0  0  0  0  0  0  0  0  0  0  0
    0.0000    0.0000    0.0000 H   0  0  0  0  0  0  0  0  0  0  0  0
    0.0000    0.0000    0.0000 H   0  0  0  0  0  0  0  0  0  0  0  0
    0.0000    0.0000    0.0000 H   0  0  0  0  0  0  0  0  0  0  0  0
    0.0000    0.0000    0.0000 H   0  0  0  0  0  0  0  0  0  0  0  0
    0.0000    0.0000    0.0000 H   0  0  0  0  0  0  0  0  0  0  0  0
    0.0000    0.0000    0.0000 H   0  0  0  0  0  0  0  0  0  0  0  0
  1  2  1  0
  2  3  1  0
  2  4  1  0
  2  5  1  0
  1  6  1  0
  1  7  1  0
  1  8  1  0
  3  9  1  0
  3 10  1  0
  3 11  1  0
  4 12  1  0
  4 13  1  0
  4 14  1  0
M  END
>  <partial_charges>  (412) 
-0.0989999994636
0.0799999982119
-0.0989999994636
-0.0989999994636
-0.214900001884
0.0480000004172
0.0480000004172
0.0480000004172
0.0480000004172
0.0480000004172
0.0480000004172
0.0480000004172
0.0480000004172
0.0480000004172

>  <partial_bond_orders>  (412) 
1.0
1.0
1.0
1.0
1.0
1.0
1.0
1.0
1.0
1.0
1.0
1.0
1.0

>  <atom_types>  (412) 
c3
c3
c3
c3
cl
hc
hc
hc
hc
hc
hc
hc
hc
hc

>  <target>  (412) 
1.09

>  <cal>  (412) 
0.826

$$$$
mobley_2501588
     RDKit          3D

 40 41  0  0  1  0  0  0  0  0999 V2000
    0.4600    2.4600   -9.1200 C   0  0  0  0  0  0  0  0  0  0  0  0
    1.6660    1.8290   -8.4410 C   0  0  0  0  0  0  0  0  0  0  0  0
    1.3570    1.3350   -7.0320 C   0  0  0  0  0  0  0  0  0  0  0  0
    2.5010    0.7400   -6.3970 N   0  0  0  0  0  0  0  0  0  0  0  0
    3.6980    1.5610   -6.1860 C   0  0  0  0  0  0  0  0  0  0  0  0
    3.3680    2.7330   -5.3450 C   0  0  0  0  0  0  0  0  0  0  0  0
    3.3390    4.1200   -5.9390 C   0  0  0  0  0  0  0  0  0  0  0  0
    4.4320    3.7380   -4.9800 C   0  0  0  0  0  0  0  0  0  0  0  0
    2.4930   -0.5970   -5.9650 C   0  0  0  0  0  0  0  0  0  0  0  0
    2.0730   -0.9100   -4.6730 C   0  0  0  0  0  0  0  0  0  0  0  0
    2.0650   -2.2370   -4.2440 C   0  0  0  0  0  0  0  0  0  0  0  0
    2.4780   -3.2520   -5.1080 C   0  0  0  0  0  0  0  0  0  0  0  0
    2.8970   -2.9390   -6.4010 C   0  0  0  0  0  0  0  0  0  0  0  0
    2.9050   -1.6110   -6.8290 C   0  0  0  0  0  0  0  0  0  0  0  0
    3.3390   -1.3230   -8.1540 N   0  0  0  0  0  0  0  0  0  0  0  0
    4.5530   -1.0890   -8.3550 O   0  0  0  0  0  0  0  0  0  0  0  0
    2.4920   -1.3110   -9.0780 O   0  0  0  0  0  0  0  0  0  0  0  0
    2.4690   -4.6710   -4.6490 C   0  0  0  0  0  0  0  0  0  0  0  0
    2.0340   -4.8290   -3.3640 F   0  0  0  0  0  0  0  0  0  0  0  0
    1.6650   -5.4830   -5.3990 F   0  0  0  0  0  0  0  0  0  0  0  0
    3.7070   -5.2430   -4.6900 F   0  0  0  0  0  0  0  0  0  0  0  0
    1.6460    0.1030   -3.7680 N   0  0  0  0  0  0  0  0  0  0  0  0
    0.4340    0.4220   -3.7460 O   0  0  0  0  0  0  0  0  0  0  0  0
    2.4950    0.6450   -3.0230 O   0  0  0  0  0  0  0  0  0  0  0  0
    0.0000    0.0000    0.0000 H   0  0  0  0  0  0  0  0  0  0  0  0
    0.0000    0.0000    0.0000 H   0  0  0  0  0  0  0  0  0  0  0  0
    0.0000    0.0000    0.0000 H   0  0  0  0  0  0  0  0  0  0  0  0
    0.0000    0.0000    0.0000 H   0  0  0  0  0  0  0  0  0  0  0  0
    0.0000    0.0000    0.0000 H   0  0  0  0  0  0  0  0  0  0  0  0
    0.0000    0.0000    0.0000 H   0  0  0  0  0  0  0  0  0  0  0  0
    0.0000    0.0000    0.0000 H   0  0  0  0  0  0  0  0  0  0  0  0
    0.0000    0.0000    0.0000 H   0  0  0  0  0  0  0  0  0  0  0  0
    0.0000    0.0000    0.0000 H   0  0  0  0  0  0  0  0  0  0  0  0
    0.0000    0.0000    0.0000 H   0  0  0  0  0  0  0  0  0  0  0  0
    0.0000    0.0000    0.0000 H   0  0  0  0  0  0  0  0  0  0  0  0
    0.0000    0.0000    0.0000 H   0  0  0  0  0  0  0  0  0  0  0  0
    0.0000    0.0000    0.0000 H   0  0  0  0  0  0  0  0  0  0  0  0
    0.0000    0.0000    0.0000 H   0  0  0  0  0  0  0  0  0  0  0  0
    0.0000    0.0000    0.0000 H   0  0  0  0  0  0  0  0  0  0  0  0
    0.0000    0.0000    0.0000 H   0  0  0  0  0  0  0  0  0  0  0  0
  1  2  1  0
  2  3  1  0
  3  4  1  0
  4  5  1  0
  5  6  1  0
  6  8  1  0
  6  7  1  0
  7  8  1  0
  4  9  1  0
  9 14  1  0
  9 10  2  0
 10 11  1  0
 11 12  2  0
 12 13  1  0
 13 14  2  0
 14 15  1  0
 15 16  1  0
 15 17  1  0
 12 18  1  0
 18 19  1  0
 18 20  1  0
 18 21  1  0
 10 22  1  0
 22 23  1  0
 22 24  1  0
  1 25  1  0
  1 26  1  0
  1 27  1  0
  2 28  1  0
  2 29  1  0
  3 30  1  0
  3 31  1  0
  5 32  1  0
  5 33  1  0
  6 34  1  0
  7 35  1  0
  7 36  1  0
  8 37  1  0
  8 38  1  0
 11 39  1  0
 13 40  1  0
M  CHG  4  16  -1  17  -1  23  -1  24  -1
M  END
>  <partial_charges>  (413) 
-0.0894000008702
-0.107100002468
0.240999996662
-0.783699989319
0.263399988413
-0.157399997115
-0.125400006771
-0.125400006771
0.298999994993
-0.175200000405
-0.0153999999166
-0.173700004816
-0.0153999999166
-0.175200000405
0.318300008774
-0.178599998355
-0.178599998355
0.694400012493
-0.22460000217
-0.22460000217
-0.22460000217
0.318300008774
-0.178599998355
-0.178599998355
0.0375999994576
0.0375999994576
0.0375999994576
0.0516000017524
0.0516000017524
0.054999999702
0.054999999702
0.0553999990225
0.0553999990225
0.0961000025272
0.0740000009537
0.0740000009537
0.0740000009537
0.0740000009537
0.184000000358
0.184000000358

>  <partial_bond_orders>  (413) 
1.0
1.0
1.0
1.0
1.0
1.0
1.0
1.0
1.0
2.0
1.0
2.0
1.0
2.0
1.0
1.0
1.0
1.0
1.0
1.0
1.0
1.0
1.0
1.0
1.0
1.0
1.0
1.0
1.0
1.0
1.0
1.0
1.0
1.0
1.0
1.0
1.0
1.0
1.0
1.0
1.0

>  <atom_types>  (413) 
c3
c3
c3
nh
c3
cx
cx
cx
ca
ca
ca
ca
ca
ca
no
o
o
c3
f
f
f
no
o
o
hc
hc
hc
hc
hc
h1
h1
h1
h1
hc
hc
hc
hc
hc
ha
ha

>  <target>  (413) 
-2.45

>  <cal>  (413) 
-1.956

$$$$
mobley_3325209
     RDKit          3D

 27 27  0  0  0  0  0  0  0  0999 V2000
    0.7890    0.7960   -0.3490 C   0  0  0  0  0  0  0  0  0  0  0  0
    0.7050    1.8840    0.5670 O   0  0  0  0  0  0  0  0  0  0  0  0
   -0.5850    2.5420    0.6460 C   0  0  0  0  0  0  0  0  0  0  0  0
   -0.9240    3.0960   -0.7440 C   0  0  0  0  0  0  0  0  0  0  0  0
   -0.0830    4.0320   -1.3460 C   0  0  0  0  0  0  0  0  0  0  0  0
   -0.3920    4.5360   -2.6090 C   0  0  0  0  0  0  0  0  0  0  0  0
   -1.5420    4.1050   -3.2700 C   0  0  0  0  0  0  0  0  0  0  0  0
   -2.3830    3.1690   -2.6680 C   0  0  0  0  0  0  0  0  0  0  0  0
   -2.0740    2.6650   -1.4050 C   0  0  0  0  0  0  0  0  0  0  0  0
   -1.6070    1.6330    1.1030 O   0  0  0  0  0  0  0  0  0  0  0  0
   -1.3670    1.0820    2.3940 C   0  0  0  0  0  0  0  0  0  0  0  0
   -0.4330    3.6620    1.5540 O   0  0  0  0  0  0  0  0  0  0  0  0
   -1.6030    4.4450    1.7690 C   0  0  0  0  0  0  0  0  0  0  0  0
    0.0000    0.0000    0.0000 H   0  0  0  0  0  0  0  0  0  0  0  0
    0.0000    0.0000    0.0000 H   0  0  0  0  0  0  0  0  0  0  0  0
    0.0000    0.0000    0.0000 H   0  0  0  0  0  0  0  0  0  0  0  0
    0.0000    0.0000    0.0000 H   0  0  0  0  0  0  0  0  0  0  0  0
    0.0000    0.0000    0.0000 H   0  0  0  0  0  0  0  0  0  0  0  0
    0.0000    0.0000    0.0000 H   0  0  0  0  0  0  0  0  0  0  0  0
    0.0000    0.0000    0.0000 H   0  0  0  0  0  0  0  0  0  0  0  0
    0.0000    0.0000    0.0000 H   0  0  0  0  0  0  0  0  0  0  0  0
    0.0000    0.0000    0.0000 H   0  0  0  0  0  0  0  0  0  0  0  0
    0.0000    0.0000    0.0000 H   0  0  0  0  0  0  0  0  0  0  0  0
    0.0000    0.0000    0.0000 H   0  0  0  0  0  0  0  0  0  0  0  0
    0.0000    0.0000    0.0000 H   0  0  0  0  0  0  0  0  0  0  0  0
    0.0000    0.0000    0.0000 H   0  0  0  0  0  0  0  0  0  0  0  0
    0.0000    0.0000    0.0000 H   0  0  0  0  0  0  0  0  0  0  0  0
  1  2  1  0
  2  3  1  0
  3  4  1  0
  4  9  2  0
  4  5  1  0
  5  6  2  0
  6  7  1  0
  7  8  2  0
  8  9  1  0
  3 10  1  0
 10 11  1  0
  3 12  1  0
 12 13  1  0
  1 14  1  0
  1 15  1  0
  1 16  1  0
  5 17  1  0
  6 18  1  0
  7 19  1  0
  8 20  1  0
  9 21  1  0
 11 22  1  0
 11 23  1  0
 11 24  1  0
 13 25  1  0
 13 26  1  0
 13 27  1  0
M  END
>  <partial_charges>  (414) 
0.123199999332
-0.435400009155
0.562699973583
-0.133599996567
-0.0938000008464
-0.142399996519
-0.115000002086
-0.142399996519
-0.0938000008464
-0.435400009155
0.123199999332
-0.435400009155
0.123199999332
0.0428000018001
0.0428000018001
0.0428000018001
0.153200000525
0.135199993849
0.132699996233
0.135199993849
0.153200000525
0.0428000018001
0.0428000018001
0.0428000018001
0.0428000018001
0.0428000018001
0.0428000018001

>  <partial_bond_orders>  (414) 
1.0
1.0
1.0
2.0
1.0
2.0
1.0
2.0
1.0
1.0
1.0
1.0
1.0
1.0
1.0
1.0
1.0
1.0
1.0
1.0
1.0
1.0
1.0
1.0
1.0
1.0
1.0

>  <atom_types>  (414) 
c3
os
c3
ca
ca
ca
ca
ca
ca
os
c3
os
c3
h1
h1
h1
ha
ha
ha
ha
ha
h1
h1
h1
h1
h1
h1

>  <target>  (414) 
-4.04

>  <cal>  (414) 
-5.559

$$$$
mobley_52782
     RDKit          3D

 14 13  0  0  0  0  0  0  0  0999 V2000
   -2.1460   -0.1940   -0.1210 C   0  0  0  0  0  0  0  0  0  0  0  0
   -0.8940    0.4510    0.4420 C   0  0  0  0  0  0  0  0  0  0  0  0
   -0.8120    1.7920   -0.0250 O   0  0  0  0  0  0  0  0  0  0  0  0
    0.3340    2.4890    0.4490 N   0  0  0  0  0  0  0  0  0  0  0  0
    1.1090    1.8780    1.1880 O   0  0  0  0  0  0  0  0  0  0  0  0
    0.3920    3.6480    0.0370 O   0  0  0  0  0  0  0  0  0  0  0  0
   -3.2830    0.5410    0.3170 O   0  0  0  0  0  0  0  0  0  0  0  0
   -4.5160    0.0160   -0.1580 N   0  0  0  0  0  0  0  0  0  0  0  0
   -4.4720   -0.9870   -0.8750 O   0  0  0  0  0  0  0  0  0  0  0  0
   -5.4910    0.6610    0.2290 O   0  0  0  0  0  0  0  0  0  0  0  0
    0.0000    0.0000    0.0000 H   0  0  0  0  0  0  0  0  0  0  0  0
    0.0000    0.0000    0.0000 H   0  0  0  0  0  0  0  0  0  0  0  0
    0.0000    0.0000    0.0000 H   0  0  0  0  0  0  0  0  0  0  0  0
    0.0000    0.0000    0.0000 H   0  0  0  0  0  0  0  0  0  0  0  0
  1  2  1  0
  2  3  1  0
  3  4  1  0
  4  5  1  0
  4  6  1  0
  1  7  1  0
  7  8  1  0
  8  9  1  0
  8 10  1  0
  1 11  1  0
  1 12  1  0
  2 13  1  0
  2 14  1  0
M  CHG  4   5  -1   6  -1   9  -1  10  -1
M  END
>  <partial_charges>  (415) 
0.125799998641
0.125900000334
-0.345200002193
0.380400002003
-0.169900000095
-0.169900000095
-0.345200002193
0.380400002003
-0.169900000095
-0.169900000095
0.0894000008702
0.0894000008702
0.0894000008702
0.0894000008702

>  <partial_bond_orders>  (415) 
1.0
1.0
1.0
1.0
1.0
1.0
1.0
1.0
1.0
1.0
1.0
1.0
1.0

>  <atom_types>  (415) 
c3
c3
os
no
o
o
os
no
o
o
h1
h1
h1
h1

>  <target>  (415) 
-5.73

>  <cal>  (415) 
-6.227

$$$$
mobley_8427539
     RDKit          3D

 12 11  0  0  0  0  0  0  0  0999 V2000
    0.6300    0.2720    0.8540 C   0  0  0  0  0  0  0  0  0  0  0  0
    1.0470   -0.9600    1.6360 C   0  0  0  0  0  0  0  0  0  0  0  0
   -0.1380   -1.7280    2.1840 C   0  0  0  0  0  0  0  0  0  0  0  0
   -1.3080   -1.3950    2.0150 O   0  0  0  0  0  0  0  0  0  0  0  0
    0.2450   -2.8460    2.8930 N   0  0  0  0  0  0  0  0  0  0  0  0
    0.0000    0.0000    0.0000 H   0  0  0  0  0  0  0  0  0  0  0  0
    0.0000    0.0000    0.0000 H   0  0  0  0  0  0  0  0  0  0  0  0
    0.0000    0.0000    0.0000 H   0  0  0  0  0  0  0  0  0  0  0  0
    0.0000    0.0000    0.0000 H   0  0  0  0  0  0  0  0  0  0  0  0
    0.0000    0.0000    0.0000 H   0  0  0  0  0  0  0  0  0  0  0  0
    0.0000    0.0000    0.0000 H   0  0  0  0  0  0  0  0  0  0  0  0
    0.0000    0.0000    0.0000 H   0  0  0  0  0  0  0  0  0  0  0  0
  1  2  1  0
  2  3  1  0
  3  4  2  0
  3  5  1  0
  1  6  1  0
  1  7  1  0
  1  8  1  0
  2  9  1  0
  2 10  1  0
  5 11  1  0
  5 12  1  0
M  END
>  <partial_charges>  (416) 
-0.0846000015736
-0.152099996805
0.659500002861
-0.607599973679
-0.686500012875
0.0458999983966
0.0458999983966
0.0458999983966
0.0579000003636
0.0579000003636
0.308999985456
0.308999985456

>  <partial_bond_orders>  (416) 
1.0
1.0
2.0
1.0
1.0
1.0
1.0
1.0
1.0
1.0
1.0

>  <atom_types>  (416) 
c3
c3
c
o
n
hc
hc
hc
hc
hc
hn
hn

>  <target>  (416) 
-9.4

>  <cal>  (416) 
-8.31

$$$$
mobley_5852491
     RDKit          3D

 18 18  0  0  0  0  0  0  0  0999 V2000
    0.5910   -1.1930   -4.1770 C   0  0  0  0  0  0  0  0  0  0  0  0
    0.0450   -0.9980   -2.7730 C   0  0  0  0  0  0  0  0  0  0  0  0
    0.6370    0.2130   -2.0600 C   0  0  0  0  0  0  0  0  0  0  0  0
   -0.3400    0.4880   -0.9210 C   0  0  0  0  0  0  0  0  0  0  0  0
   -1.6800   -0.1060   -1.3570 C   0  0  0  0  0  0  0  0  0  0  0  0
   -1.4490   -0.6930   -2.7460 C   0  0  0  0  0  0  0  0  0  0  0  0
    0.0000    0.0000    0.0000 H   0  0  0  0  0  0  0  0  0  0  0  0
    0.0000    0.0000    0.0000 H   0  0  0  0  0  0  0  0  0  0  0  0
    0.0000    0.0000    0.0000 H   0  0  0  0  0  0  0  0  0  0  0  0
    0.0000    0.0000    0.0000 H   0  0  0  0  0  0  0  0  0  0  0  0
    0.0000    0.0000    0.0000 H   0  0  0  0  0  0  0  0  0  0  0  0
    0.0000    0.0000    0.0000 H   0  0  0  0  0  0  0  0  0  0  0  0
    0.0000    0.0000    0.0000 H   0  0  0  0  0  0  0  0  0  0  0  0
    0.0000    0.0000    0.0000 H   0  0  0  0  0  0  0  0  0  0  0  0
    0.0000    0.0000    0.0000 H   0  0  0  0  0  0  0  0  0  0  0  0
    0.0000    0.0000    0.0000 H   0  0  0  0  0  0  0  0  0  0  0  0
    0.0000    0.0000    0.0000 H   0  0  0  0  0  0  0  0  0  0  0  0
    0.0000    0.0000    0.0000 H   0  0  0  0  0  0  0  0  0  0  0  0
  1  2  1  0
  2  6  1  0
  2  3  1  0
  3  4  1  0
  4  5  1  0
  5  6  1  0
  1  7  1  0
  1  8  1  0
  1  9  1  0
  2 10  1  0
  3 11  1  0
  3 12  1  0
  4 13  1  0
  4 14  1  0
  5 15  1  0
  5 16  1  0
  6 17  1  0
  6 18  1  0
M  END
>  <partial_charges>  (417) 
-0.0837000012398
-0.0720999985933
-0.0768000036478
-0.0802000015974
-0.0802000015974
-0.0768000036478
0.0335999988019
0.0335999988019
0.0335999988019
0.0430000014603
0.0417999997735
0.0417999997735
0.0397000014782
0.0397000014782
0.0397000014782
0.0397000014782
0.0417999997735
0.0417999997735

>  <partial_bond_orders>  (417) 
1.0
1.0
1.0
1.0
1.0
1.0
1.0
1.0
1.0
1.0
1.0
1.0
1.0
1.0
1.0
1.0
1.0
1.0

>  <atom_types>  (417) 
c3
c3
c3
c3
c3
c3
hc
hc
hc
hc
hc
hc
hc
hc
hc
hc
hc
hc

>  <target>  (417) 
1.59

>  <cal>  (417) 
1.785

$$$$
mobley_1034539
     RDKit          3D

 22 23  0  0  0  0  0  0  0  0999 V2000
    1.8850   -1.0360   -0.1120 C   0  0  0  0  0  0  0  0  0  0  0  0
    2.9210   -1.6310    0.6080 C   0  0  0  0  0  0  0  0  0  0  0  0
    2.8780   -1.6520    2.0020 C   0  0  0  0  0  0  0  0  0  0  0  0
    1.8000   -1.0790    2.6760 C   0  0  0  0  0  0  0  0  0  0  0  0
    0.7640   -0.4840    1.9550 C   0  0  0  0  0  0  0  0  0  0  0  0
    0.8070   -0.4630    0.5610 C   0  0  0  0  0  0  0  0  0  0  0  0
   -0.2670    0.1540   -0.1870 C   0  0  0  0  0  0  0  0  0  0  0  0
   -0.1520    1.5110   -0.4880 C   0  0  0  0  0  0  0  0  0  0  0  0
   -1.1600    2.1540   -1.2070 C   0  0  0  0  0  0  0  0  0  0  0  0
   -2.2820    1.4400   -1.6260 C   0  0  0  0  0  0  0  0  0  0  0  0
   -2.3970    0.0820   -1.3260 C   0  0  0  0  0  0  0  0  0  0  0  0
   -1.3890   -0.5600   -0.6060 C   0  0  0  0  0  0  0  0  0  0  0  0
   -1.5140   -2.2530   -0.2160 Cl  0  0  0  0  0  0  0  0  0  0  0  0
   -3.7980   -0.8120   -1.8470 Cl  0  0  0  0  0  0  0  0  0  0  0  0
   -3.5310    2.2550   -2.5230 Cl  0  0  0  0  0  0  0  0  0  0  0  0
   -0.9430    3.8380   -1.5430 Cl  0  0  0  0  0  0  0  0  0  0  0  0
    1.6920   -1.0700    4.4010 Cl  0  0  0  0  0  0  0  0  0  0  0  0
    4.1940   -2.3990    2.8380 Cl  0  0  0  0  0  0  0  0  0  0  0  0
    0.0000    0.0000    0.0000 H   0  0  0  0  0  0  0  0  0  0  0  0
    0.0000    0.0000    0.0000 H   0  0  0  0  0  0  0  0  0  0  0  0
    0.0000    0.0000    0.0000 H   0  0  0  0  0  0  0  0  0  0  0  0
    0.0000    0.0000    0.0000 H   0  0  0  0  0  0  0  0  0  0  0  0
  1  6  2  0
  1  2  1  0
  2  3  2  0
  3  4  1  0
  4  5  2  0
  5  6  1  0
  6  7  1  0
  7 12  1  0
  7  8  2  0
  8  9  1  0
  9 10  2  0
 10 11  1  0
 11 12  2  0
 12 13  1  0
 11 14  1  0
 10 15  1  0
  9 16  1  0
  4 17  1  0
  3 18  1  0
  1 19  1  0
  2 20  1  0
  5 21  1  0
  8 22  1  0
M  END
>  <partial_charges>  (418) 
-0.0979000031948
-0.11930000037
0.0247000008821
0.0154999997467
-0.0944999977946
-0.0461999997497
-0.025399999693
-0.0982000008225
0.019200000912
0.0244999993593
0.019200000912
0.034200001508
-0.042199999094
-0.0351000018418
-0.0337999984622
-0.0507999993861
-0.0626000016928
-0.0625
0.150299996138
0.155000001192
0.159700006247
0.166199997067

>  <partial_bond_orders>  (418) 
2.0
1.0
2.0
1.0
2.0
1.0
1.0
2.0
1.0
2.0
1.0
2.0
1.0
1.0
1.0
1.0
1.0
1.0
1.0
1.0
1.0
1.0
1.0

>  <atom_types>  (418) 
ca
ca
ca
ca
ca
cp
cp
ca
ca
ca
ca
ca
cl
cl
cl
cl
cl
cl
ha
ha
ha
ha

>  <target>  (418) 
-3.04

>  <cal>  (418) 
-1.083

$$$$
mobley_8449031
     RDKit          3D

 22 21  0  0  0  0  0  0  0  0999 V2000
   -1.0860    0.8640    1.5850 C   0  0  0  0  0  0  0  0  0  0  0  0
   -0.2720   -0.2550    1.0310 C   0  0  0  0  0  0  0  0  0  0  0  0
    0.9010   -0.5170    1.8640 N   0  0  0  0  0  0  0  0  0  0  0  0
    1.7510    0.6710    1.9380 C   0  0  0  0  0  0  0  0  0  0  0  0
    2.9380    0.4000    2.7830 C   0  0  0  0  0  0  0  0  0  0  0  0
    1.6570   -1.6540    1.3400 C   0  0  0  0  0  0  0  0  0  0  0  0
    0.8080   -2.8690    1.3230 C   0  0  0  0  0  0  0  0  0  0  0  0
    0.0000    0.0000    0.0000 H   0  0  0  0  0  0  0  0  0  0  0  0
    0.0000    0.0000    0.0000 H   0  0  0  0  0  0  0  0  0  0  0  0
    0.0000    0.0000    0.0000 H   0  0  0  0  0  0  0  0  0  0  0  0
    0.0000    0.0000    0.0000 H   0  0  0  0  0  0  0  0  0  0  0  0
    0.0000    0.0000    0.0000 H   0  0  0  0  0  0  0  0  0  0  0  0
    0.0000    0.0000    0.0000 H   0  0  0  0  0  0  0  0  0  0  0  0
    0.0000    0.0000    0.0000 H   0  0  0  0  0  0  0  0  0  0  0  0
    0.0000    0.0000    0.0000 H   0  0  0  0  0  0  0  0  0  0  0  0
    0.0000    0.0000    0.0000 H   0  0  0  0  0  0  0  0  0  0  0  0
    0.0000    0.0000    0.0000 H   0  0  0  0  0  0  0  0  0  0  0  0
    0.0000    0.0000    0.0000 H   0  0  0  0  0  0  0  0  0  0  0  0
    0.0000    0.0000    0.0000 H   0  0  0  0  0  0  0  0  0  0  0  0
    0.0000    0.0000    0.0000 H   0  0  0  0  0  0  0  0  0  0  0  0
    0.0000    0.0000    0.0000 H   0  0  0  0  0  0  0  0  0  0  0  0
    0.0000    0.0000    0.0000 H   0  0  0  0  0  0  0  0  0  0  0  0
  1  2  1  0
  2  3  1  0
  3  4  1  0
  4  5  1  0
  3  6  1  0
  6  7  1  0
  1  8  1  0
  1  9  1  0
  1 10  1  0
  2 11  1  0
  2 12  1  0
  4 13  1  0
  4 14  1  0
  5 15  1  0
  5 16  1  0
  5 17  1  0
  6 18  1  0
  6 19  1  0
  7 20  1  0
  7 21  1  0
  7 22  1  0
M  END
>  <partial_charges>  (419) 
-0.0949999988079
0.163100004196
-0.724600017071
0.163100004196
-0.0949999988079
0.163100004196
-0.0949999988079
0.0379000008106
0.0379000008106
0.0379000008106
0.0298999994993
0.0298999994993
0.0298999994993
0.0298999994993
0.0379000008106
0.0379000008106
0.0379000008106
0.0298999994993
0.0298999994993
0.0379000008106
0.0379000008106
0.0379000008106

>  <partial_bond_orders>  (419) 
1.0
1.0
1.0
1.0
1.0
1.0
1.0
1.0
1.0
1.0
1.0
1.0
1.0
1.0
1.0
1.0
1.0
1.0
1.0
1.0
1.0

>  <atom_types>  (419) 
c3
c3
n3
c3
c3
c3
c3
hc
hc
hc
h1
h1
h1
h1
hc
hc
hc
h1
h1
hc
hc
hc

>  <target>  (419) 
-3.22

>  <cal>  (419) 
-1.955

$$$$
mobley_8337977
     RDKit          3D

 19 18  0  0  0  0  0  0  0  0999 V2000
    4.7490   -1.8030    0.2530 C   0  0  0  0  0  0  0  0  0  0  0  0
    4.3440   -0.9800    1.4790 C   0  0  0  0  0  0  0  0  0  0  0  0
    5.1200   -1.4660    2.7050 C   0  0  0  0  0  0  0  0  0  0  0  0
    2.8340   -1.0710    1.7430 C   0  0  0  0  0  0  0  0  0  0  0  0
    1.9780   -0.5640    0.5920 C   0  0  0  0  0  0  0  0  0  0  0  0
    1.1630   -1.2720    0.0030 O   0  0  0  0  0  0  0  0  0  0  0  0
    2.2110    0.8640    0.1710 C   0  0  0  0  0  0  0  0  0  0  0  0
    0.0000    0.0000    0.0000 H   0  0  0  0  0  0  0  0  0  0  0  0
    0.0000    0.0000    0.0000 H   0  0  0  0  0  0  0  0  0  0  0  0
    0.0000    0.0000    0.0000 H   0  0  0  0  0  0  0  0  0  0  0  0
    0.0000    0.0000    0.0000 H   0  0  0  0  0  0  0  0  0  0  0  0
    0.0000    0.0000    0.0000 H   0  0  0  0  0  0  0  0  0  0  0  0
    0.0000    0.0000    0.0000 H   0  0  0  0  0  0  0  0  0  0  0  0
    0.0000    0.0000    0.0000 H   0  0  0  0  0  0  0  0  0  0  0  0
    0.0000    0.0000    0.0000 H   0  0  0  0  0  0  0  0  0  0  0  0
    0.0000    0.0000    0.0000 H   0  0  0  0  0  0  0  0  0  0  0  0
    0.0000    0.0000    0.0000 H   0  0  0  0  0  0  0  0  0  0  0  0
    0.0000    0.0000    0.0000 H   0  0  0  0  0  0  0  0  0  0  0  0
    0.0000    0.0000    0.0000 H   0  0  0  0  0  0  0  0  0  0  0  0
  1  2  1  0
  2  3  1  0
  2  4  1  0
  4  5  1  0
  5  6  2  0
  5  7  1  0
  1  8  1  0
  1  9  1  0
  1 10  1  0
  2 11  1  0
  3 12  1  0
  3 13  1  0
  3 14  1  0
  4 15  1  0
  4 16  1  0
  7 17  1  0
  7 18  1  0
  7 19  1  0
M  END
>  <partial_charges>  (420) 
-0.0931999981403
-0.0584999993443
-0.0931999981403
-0.183300003409
0.567099988461
-0.534799993038
-0.201700001955
0.0379000008106
0.0379000008106
0.0379000008106
0.0456000007689
0.0379000008106
0.0379000008106
0.0379000008106
0.0674000009894
0.0674000009894
0.0631999969482
0.0631999969482
0.0631999969482

>  <partial_bond_orders>  (420) 
1.0
1.0
1.0
1.0
2.0
1.0
1.0
1.0
1.0
1.0
1.0
1.0
1.0
1.0
1.0
1.0
1.0
1.0

>  <atom_types>  (420) 
c3
c3
c3
c3
c
o
c3
hc
hc
hc
hc
hc
hc
hc
hc
hc
hc
hc
hc

>  <target>  (420) 
-3.05

>  <cal>  (420) 
-3.116

$$$$
mobley_2354112
     RDKit          3D

 19 19  0  0  0  0  0  0  0  0999 V2000
    1.2660   -2.2410   -2.2080 C   0  0  0  0  0  0  0  0  0  0  0  0
    1.9310   -1.0140   -1.6030 C   0  0  0  0  0  0  0  0  0  0  0  0
    1.8850   -1.0360   -0.1120 C   0  0  0  0  0  0  0  0  0  0  0  0
    2.9210   -1.6310    0.6080 C   0  0  0  0  0  0  0  0  0  0  0  0
    2.8780   -1.6520    2.0020 C   0  0  0  0  0  0  0  0  0  0  0  0
    1.8000   -1.0790    2.6760 C   0  0  0  0  0  0  0  0  0  0  0  0
    0.7640   -0.4840    1.9550 C   0  0  0  0  0  0  0  0  0  0  0  0
    0.8070   -0.4630    0.5610 C   0  0  0  0  0  0  0  0  0  0  0  0
   -0.2880    0.0760    2.6120 O   0  0  0  0  0  0  0  0  0  0  0  0
    0.0000    0.0000    0.0000 H   0  0  0  0  0  0  0  0  0  0  0  0
    0.0000    0.0000    0.0000 H   0  0  0  0  0  0  0  0  0  0  0  0
    0.0000    0.0000    0.0000 H   0  0  0  0  0  0  0  0  0  0  0  0
    0.0000    0.0000    0.0000 H   0  0  0  0  0  0  0  0  0  0  0  0
    0.0000    0.0000    0.0000 H   0  0  0  0  0  0  0  0  0  0  0  0
    0.0000    0.0000    0.0000 H   0  0  0  0  0  0  0  0  0  0  0  0
    0.0000    0.0000    0.0000 H   0  0  0  0  0  0  0  0  0  0  0  0
    0.0000    0.0000    0.0000 H   0  0  0  0  0  0  0  0  0  0  0  0
    0.0000    0.0000    0.0000 H   0  0  0  0  0  0  0  0  0  0  0  0
    0.0000    0.0000    0.0000 H   0  0  0  0  0  0  0  0  0  0  0  0
  1  2  1  0
  2  3  1  0
  3  8  2  0
  3  4  1  0
  4  5  2  0
  5  6  1  0
  6  7  2  0
  7  8  1  0
  7  9  1  0
  1 10  1  0
  1 11  1  0
  1 12  1  0
  2 13  1  0
  2 14  1  0
  4 15  1  0
  5 16  1  0
  6 17  1  0
  8 18  1  0
  9 19  1  0
M  END
>  <partial_charges>  (421) 
-0.089699998498
-0.0412999987602
-0.0430999994278
-0.163000002503
-0.0898000001907
-0.218600004911
0.124799996614
-0.155599996448
-0.498400002718
0.0373000018299
0.0373000018299
0.0373000018299
0.0483999997377
0.0483999997377
0.133799999952
0.131699994206
0.132400006056
0.15000000596
0.418000012636

>  <partial_bond_orders>  (421) 
1.0
1.0
2.0
1.0
2.0
1.0
2.0
1.0
1.0
1.0
1.0
1.0
1.0
1.0
1.0
1.0
1.0
1.0
1.0

>  <atom_types>  (421) 
c3
c3
ca
ca
ca
ca
ca
ca
oh
hc
hc
hc
hc
hc
ha
ha
ha
ha
ho

>  <target>  (421) 
-6.25

>  <cal>  (421) 
-5.272

$$$$
mobley_2451097
     RDKit          3D

 13 13  0  0  0  0  0  0  0  0999 V2000
    1.8850   -1.0360   -0.1120 C   0  0  0  0  0  0  0  0  0  0  0  0
    2.9210   -1.6310    0.6080 C   0  0  0  0  0  0  0  0  0  0  0  0
    2.8780   -1.6520    2.0020 C   0  0  0  0  0  0  0  0  0  0  0  0
    1.8000   -1.0790    2.6760 C   0  0  0  0  0  0  0  0  0  0  0  0
    0.7640   -0.4840    1.9550 C   0  0  0  0  0  0  0  0  0  0  0  0
    0.8070   -0.4630    0.5610 C   0  0  0  0  0  0  0  0  0  0  0  0
    1.7560   -1.1010    4.1040 C   0  0  0  0  0  0  0  0  0  0  0  0
    1.7200   -1.1180    5.2650 N   0  0  0  0  0  0  0  0  0  0  0  0
    0.0000    0.0000    0.0000 H   0  0  0  0  0  0  0  0  0  0  0  0
    0.0000    0.0000    0.0000 H   0  0  0  0  0  0  0  0  0  0  0  0
    0.0000    0.0000    0.0000 H   0  0  0  0  0  0  0  0  0  0  0  0
    0.0000    0.0000    0.0000 H   0  0  0  0  0  0  0  0  0  0  0  0
    0.0000    0.0000    0.0000 H   0  0  0  0  0  0  0  0  0  0  0  0
  1  6  2  0
  1  2  1  0
  2  3  2  0
  3  4  1  0
  4  5  2  0
  5  6  1  0
  4  7  1  0
  7  8  3  0
  1  9  1  0
  2 10  1  0
  3 11  1  0
  5 12  1  0
  6 13  1  0
M  END
>  <partial_charges>  (422) 
-0.106799997389
-0.135299995542
-0.0908000022173
-0.0186999998987
-0.0908000022173
-0.135299995542
0.233899995685
-0.363799989223
0.13789999485
0.140000000596
0.144800007343
0.144800007343
0.140000000596

>  <partial_bond_orders>  (422) 
2.0
1.0
2.0
1.0
2.0
1.0
1.0
3.0
1.0
1.0
1.0
1.0
1.0

>  <atom_types>  (422) 
ca
ca
ca
ca
ca
ca
cg
n1
ha
ha
ha
ha
ha

>  <target>  (422) 
-4.1

>  <cal>  (422) 
-3.238

$$$$
mobley_2126135
     RDKit          3D

 19 19  0  0  0  0  0  0  0  0999 V2000
    2.6520    0.2180   -2.1300 C   0  0  0  0  0  0  0  0  0  0  0  0
    1.9470   -1.0230   -1.6040 C   0  0  0  0  0  0  0  0  0  0  0  0
    1.8850   -1.0360   -0.1120 C   0  0  0  0  0  0  0  0  0  0  0  0
    2.9210   -1.6310    0.6080 C   0  0  0  0  0  0  0  0  0  0  0  0
    2.8780   -1.6520    2.0020 C   0  0  0  0  0  0  0  0  0  0  0  0
    1.8000   -1.0790    2.6760 C   0  0  0  0  0  0  0  0  0  0  0  0
    0.7640   -0.4840    1.9550 C   0  0  0  0  0  0  0  0  0  0  0  0
    0.8070   -0.4630    0.5610 C   0  0  0  0  0  0  0  0  0  0  0  0
   -0.2140    0.1210   -0.1280 O   0  0  0  0  0  0  0  0  0  0  0  0
    0.0000    0.0000    0.0000 H   0  0  0  0  0  0  0  0  0  0  0  0
    0.0000    0.0000    0.0000 H   0  0  0  0  0  0  0  0  0  0  0  0
    0.0000    0.0000    0.0000 H   0  0  0  0  0  0  0  0  0  0  0  0
    0.0000    0.0000    0.0000 H   0  0  0  0  0  0  0  0  0  0  0  0
    0.0000    0.0000    0.0000 H   0  0  0  0  0  0  0  0  0  0  0  0
    0.0000    0.0000    0.0000 H   0  0  0  0  0  0  0  0  0  0  0  0
    0.0000    0.0000    0.0000 H   0  0  0  0  0  0  0  0  0  0  0  0
    0.0000    0.0000    0.0000 H   0  0  0  0  0  0  0  0  0  0  0  0
    0.0000    0.0000    0.0000 H   0  0  0  0  0  0  0  0  0  0  0  0
    0.0000    0.0000    0.0000 H   0  0  0  0  0  0  0  0  0  0  0  0
  1  2  1  0
  2  3  1  0
  3  8  2  0
  3  4  1  0
  4  5  2  0
  5  6  1  0
  6  7  2  0
  7  8  1  0
  8  9  1  0
  1 10  1  0
  1 11  1  0
  1 12  1  0
  2 13  1  0
  2 14  1  0
  4 15  1  0
  5 16  1  0
  6 17  1  0
  7 18  1  0
  9 19  1  0
M  END
>  <partial_charges>  (423) 
-0.0870999991894
-0.0294000003487
-0.0991000011563
-0.0986000001431
-0.162200003862
-0.0954999998212
-0.211300000548
0.124799996614
-0.498100012541
0.0355000011623
0.0355000011623
0.0355000011623
0.0511999987066
0.0511999987066
0.134100005031
0.132699996233
0.131500005722
0.131799995899
0.417499989271

>  <partial_bond_orders>  (423) 
1.0
1.0
2.0
1.0
2.0
1.0
2.0
1.0
1.0
1.0
1.0
1.0
1.0
1.0
1.0
1.0
1.0
1.0
1.0

>  <atom_types>  (423) 
c3
c3
ca
ca
ca
ca
ca
ca
oh
hc
hc
hc
hc
hc
ha
ha
ha
ha
ho

>  <target>  (423) 
-5.66

>  <cal>  (423) 
-4.768

$$$$
mobley_4553008
     RDKit          3D

 12 12  0  0  0  0  0  0  0  0999 V2000
    1.8850   -1.0360   -0.1120 C   0  0  0  0  0  0  0  0  0  0  0  0
    2.9210   -1.6310    0.6080 C   0  0  0  0  0  0  0  0  0  0  0  0
    2.8780   -1.6520    2.0020 C   0  0  0  0  0  0  0  0  0  0  0  0
    1.8000   -1.0790    2.6760 C   0  0  0  0  0  0  0  0  0  0  0  0
    0.7640   -0.4840    1.9550 C   0  0  0  0  0  0  0  0  0  0  0  0
    0.8070   -0.4630    0.5610 C   0  0  0  0  0  0  0  0  0  0  0  0
   -0.4710    0.2710   -0.3280 Cl  0  0  0  0  0  0  0  0  0  0  0  0
    4.1560   -2.3850    2.8910 Cl  0  0  0  0  0  0  0  0  0  0  0  0
    0.0000    0.0000    0.0000 H   0  0  0  0  0  0  0  0  0  0  0  0
    0.0000    0.0000    0.0000 H   0  0  0  0  0  0  0  0  0  0  0  0
    0.0000    0.0000    0.0000 H   0  0  0  0  0  0  0  0  0  0  0  0
    0.0000    0.0000    0.0000 H   0  0  0  0  0  0  0  0  0  0  0  0
  1  6  2  0
  1  2  1  0
  2  3  2  0
  3  4  1  0
  4  5  2  0
  5  6  1  0
  6  7  1  0
  3  8  1  0
  1  9  1  0
  2 10  1  0
  4 11  1  0
  5 12  1  0
M  END
>  <partial_charges>  (424) 
-0.116499997675
-0.116400003433
0.0156999994069
-0.116400003433
-0.116400003433
0.0156999994069
-0.0873000025749
-0.0873000025749
0.152300000191
0.152300000191
0.152300000191
0.152300000191

>  <partial_bond_orders>  (424) 
2.0
1.0
2.0
1.0
2.0
1.0
1.0
1.0
1.0
1.0
1.0
1.0

>  <atom_types>  (424) 
ca
ca
ca
ca
ca
ca
cl
cl
ha
ha
ha
ha

>  <target>  (424) 
-1.01

>  <cal>  (424) 
-0.19

$$$$
mobley_2068538
     RDKit          3D

 11 10  0  0  0  0  0  0  0  0999 V2000
   -0.5530   -0.2790    0.9030 C   0  0  0  0  0  0  0  0  0  0  0  0
    0.3850   -0.4430    2.0870 C   0  0  0  0  0  0  0  0  0  0  0  0
    1.1310    0.8190    2.3890 C   0  0  0  0  0  0  0  0  0  0  0  0
    0.0000    0.0000    0.0000 H   0  0  0  0  0  0  0  0  0  0  0  0
    0.0000    0.0000    0.0000 H   0  0  0  0  0  0  0  0  0  0  0  0
    0.0000    0.0000    0.0000 H   0  0  0  0  0  0  0  0  0  0  0  0
    0.0000    0.0000    0.0000 H   0  0  0  0  0  0  0  0  0  0  0  0
    0.0000    0.0000    0.0000 H   0  0  0  0  0  0  0  0  0  0  0  0
    0.0000    0.0000    0.0000 H   0  0  0  0  0  0  0  0  0  0  0  0
    0.0000    0.0000    0.0000 H   0  0  0  0  0  0  0  0  0  0  0  0
    0.0000    0.0000    0.0000 H   0  0  0  0  0  0  0  0  0  0  0  0
  1  2  1  0
  2  3  1  0
  1  4  1  0
  1  5  1  0
  1  6  1  0
  2  7  1  0
  2  8  1  0
  3  9  1  0
  3 10  1  0
  3 11  1  0
M  END
>  <partial_charges>  (425) 
-0.0922999978065
-0.0813999995589
-0.0922999978065
0.0322000011802
0.0322000011802
0.0322000011802
0.0364999994636
0.0364999994636
0.0322000011802
0.0322000011802
0.0322000011802

>  <partial_bond_orders>  (425) 
1.0
1.0
1.0
1.0
1.0
1.0
1.0
1.0
1.0
1.0

>  <atom_types>  (425) 
c3
c3
c3
hc
hc
hc
hc
hc
hc
hc
hc

>  <target>  (425) 
2.0

>  <cal>  (425) 
2.495

$$$$
mobley_9534740
     RDKit          3D

 24 24  0  0  1  0  0  0  0  0999 V2000
    0.7250    1.2770   -2.3060 C   0  0  0  0  0  0  0  0  0  0  0  0
   -0.0640   -0.0220   -2.1700 C   0  0  0  0  0  0  0  0  0  0  0  0
   -0.7390   -0.1330   -0.8000 C   0  0  0  0  0  0  0  0  0  0  0  0
   -1.4240   -1.4910   -0.6420 C   0  0  0  0  0  0  0  0  0  0  0  0
   -0.4800   -2.6340   -1.0160 C   0  0  0  0  0  0  0  0  0  0  0  0
    0.2030   -2.3730   -2.3590 C   0  0  0  0  0  0  0  0  0  0  0  0
    0.8520   -1.1030   -2.3510 O   0  0  0  0  0  0  0  0  0  0  0  0
    1.1660   -3.4060   -2.5660 O   0  0  0  0  0  0  0  0  0  0  0  0
   -1.2430   -3.8370   -1.0960 O   0  0  0  0  0  0  0  0  0  0  0  0
   -1.8240   -1.6380    0.7210 O   0  0  0  0  0  0  0  0  0  0  0  0
   -1.7090    0.9020   -0.6670 O   0  0  0  0  0  0  0  0  0  0  0  0
    1.3540    1.3040   -3.5780 O   0  0  0  0  0  0  0  0  0  0  0  0
    0.0000    0.0000    0.0000 H   0  0  0  0  0  0  0  0  0  0  0  0
    0.0000    0.0000    0.0000 H   0  0  0  0  0  0  0  0  0  0  0  0
    0.0000    0.0000    0.0000 H   0  0  0  0  0  0  0  0  0  0  0  0
    0.0000    0.0000    0.0000 H   0  0  0  0  0  0  0  0  0  0  0  0
    0.0000    0.0000    0.0000 H   0  0  0  0  0  0  0  0  0  0  0  0
    0.0000    0.0000    0.0000 H   0  0  0  0  0  0  0  0  0  0  0  0
    0.0000    0.0000    0.0000 H   0  0  0  0  0  0  0  0  0  0  0  0
    0.0000    0.0000    0.0000 H   0  0  0  0  0  0  0  0  0  0  0  0
    0.0000    0.0000    0.0000 H   0  0  0  0  0  0  0  0  0  0  0  0
    0.0000    0.0000    0.0000 H   0  0  0  0  0  0  0  0  0  0  0  0
    0.0000    0.0000    0.0000 H   0  0  0  0  0  0  0  0  0  0  0  0
    0.0000    0.0000    0.0000 H   0  0  0  0  0  0  0  0  0  0  0  0
  1  2  1  0
  2  7  1  0
  2  3  1  0
  3  4  1  0
  4  5  1  0
  5  6  1  0
  6  7  1  0
  6  8  1  0
  5  9  1  0
  4 10  1  0
  3 11  1  0
  1 12  1  0
  1 13  1  0
  1 14  1  0
  2 15  1  0
  3 16  1  0
  4 17  1  0
  5 18  1  0
  6 19  1  0
  8 20  1  0
  9 21  1  0
 10 22  1  0
 11 23  1  0
 12 24  1  0
M  END
>  <partial_charges>  (426) 
0.138999998569
0.148200005293
0.0671999976039
0.119800001383
0.0646999999881
0.107699997723
0.0649000033736
0.0879999995232
0.0764999985695
0.30680000782
0.0516999997199
-0.432999998331
-0.601899981499
-0.605400025845
-0.607500016689
-0.597400009632
-0.594299972057
0.0447999984026
0.0447999984026
0.434300005436
0.426200002432
0.426600009203
0.424800008535
0.403499990702

>  <partial_bond_orders>  (426) 
1.0
1.0
1.0
1.0
1.0
1.0
1.0
1.0
1.0
1.0
1.0
1.0
1.0
1.0
1.0
1.0
1.0
1.0
1.0
1.0
1.0
1.0
1.0
1.0

>  <atom_types>  (426) 
c3
c3
h1
c3
h1
c3
h1
c3
h1
c3
h2
os
oh
oh
oh
oh
oh
h1
h1
ho
ho
ho
ho
ho

>  <target>  (426) 
-25.47

>  <cal>  (426) 
-18.095

$$$$
mobley_1107178
     RDKit          3D

  8  7  0  0  0  0  0  0  0  0999 V2000
    0.1450   -0.6960    0.8340 C   0  0  0  0  0  0  0  0  0  0  0  0
    1.4100   -0.3750    1.6100 C   0  0  0  0  0  0  0  0  0  0  0  0
    3.1270   -0.5150    0.3560 I   0  0  0  0  0  0  0  0  0  0  0  0
    0.0000    0.0000    0.0000 H   0  0  0  0  0  0  0  0  0  0  0  0
    0.0000    0.0000    0.0000 H   0  0  0  0  0  0  0  0  0  0  0  0
    0.0000    0.0000    0.0000 H   0  0  0  0  0  0  0  0  0  0  0  0
    0.0000    0.0000    0.0000 H   0  0  0  0  0  0  0  0  0  0  0  0
    0.0000    0.0000    0.0000 H   0  0  0  0  0  0  0  0  0  0  0  0
  1  2  1  0
  2  3  1  0
  1  4  1  0
  1  5  1  0
  1  6  1  0
  2  7  1  0
  2  8  1  0
M  END
>  <partial_charges>  (427) 
-0.0922999978065
0.0705000013113
-0.25720000267
0.0458000004292
0.0458000004292
0.0458000004292
0.070799998939
0.070799998939

>  <partial_bond_orders>  (427) 
1.0
1.0
1.0
1.0
1.0
1.0
1.0

>  <atom_types>  (427) 
c3
c3
i
hc
hc
hc
h1
h1

>  <target>  (427) 
-0.74

>  <cal>  (427) 
-0.609

$$$$
mobley_4639255
     RDKit          3D

 10  9  0  0  0  0  0  0  0  0999 V2000
   -2.1460   -0.1940   -0.1210 C   0  0  0  0  0  0  0  0  0  0  0  0
   -0.8940    0.4510    0.4420 C   0  0  0  0  0  0  0  0  0  0  0  0
   -0.8120    1.7920   -0.0250 O   0  0  0  0  0  0  0  0  0  0  0  0
   -3.2830    0.5410    0.3170 O   0  0  0  0  0  0  0  0  0  0  0  0
    0.0000    0.0000    0.0000 H   0  0  0  0  0  0  0  0  0  0  0  0
    0.0000    0.0000    0.0000 H   0  0  0  0  0  0  0  0  0  0  0  0
    0.0000    0.0000    0.0000 H   0  0  0  0  0  0  0  0  0  0  0  0
    0.0000    0.0000    0.0000 H   0  0  0  0  0  0  0  0  0  0  0  0
    0.0000    0.0000    0.0000 H   0  0  0  0  0  0  0  0  0  0  0  0
    0.0000    0.0000    0.0000 H   0  0  0  0  0  0  0  0  0  0  0  0
  1  2  1  0
  2  3  1  0
  1  4  1  0
  1  5  1  0
  1  6  1  0
  2  7  1  0
  2  8  1  0
  3  9  1  0
  4 10  1  0
M  END
>  <partial_charges>  (428) 
0.126399993896
0.126499995589
-0.594600021839
-0.594600021839
0.0329000018537
0.0329000018537
0.0329000018537
0.0329000018537
0.402399986982
0.402399986982

>  <partial_bond_orders>  (428) 
1.0
1.0
1.0
1.0
1.0
1.0
1.0
1.0
1.0

>  <atom_types>  (428) 
c3
c3
oh
oh
h1
h1
h1
h1
ho
ho

>  <target>  (428) 
-9.3

>  <cal>  (428) 
-7.266

$$$$
mobley_2279874
     RDKit          3D

 17 16  0  0  0  0  0  0  0  0999 V2000
   -0.6400    0.3200   -0.8310 C   0  0  0  0  0  0  0  0  0  0  0  0
    0.0230    0.0000   -2.0470 O   0  0  0  0  0  0  0  0  0  0  0  0
   -0.6860    0.4750   -3.1990 C   0  0  0  0  0  0  0  0  0  0  0  0
   -0.2850   -0.2220   -4.3890 O   0  0  0  0  0  0  0  0  0  0  0  0
   -0.9100   -1.4930   -4.5120 C   0  0  0  0  0  0  0  0  0  0  0  0
   -0.5680    1.8970   -3.3760 O   0  0  0  0  0  0  0  0  0  0  0  0
    0.7750    2.3320   -3.5420 C   0  0  0  0  0  0  0  0  0  0  0  0
    0.0000    0.0000    0.0000 H   0  0  0  0  0  0  0  0  0  0  0  0
    0.0000    0.0000    0.0000 H   0  0  0  0  0  0  0  0  0  0  0  0
    0.0000    0.0000    0.0000 H   0  0  0  0  0  0  0  0  0  0  0  0
    0.0000    0.0000    0.0000 H   0  0  0  0  0  0  0  0  0  0  0  0
    0.0000    0.0000    0.0000 H   0  0  0  0  0  0  0  0  0  0  0  0
    0.0000    0.0000    0.0000 H   0  0  0  0  0  0  0  0  0  0  0  0
    0.0000    0.0000    0.0000 H   0  0  0  0  0  0  0  0  0  0  0  0
    0.0000    0.0000    0.0000 H   0  0  0  0  0  0  0  0  0  0  0  0
    0.0000    0.0000    0.0000 H   0  0  0  0  0  0  0  0  0  0  0  0
    0.0000    0.0000    0.0000 H   0  0  0  0  0  0  0  0  0  0  0  0
  1  2  1  0
  2  3  1  0
  3  4  1  0
  4  5  1  0
  3  6  1  0
  6  7  1  0
  1  8  1  0
  1  9  1  0
  1 10  1  0
  3 11  1  0
  5 12  1  0
  5 13  1  0
  5 14  1  0
  7 15  1  0
  7 16  1  0
  7 17  1  0
M  END
>  <partial_charges>  (429) 
0.124799996614
-0.440400004387
0.500899970531
-0.440400004387
0.124799996614
-0.440400004387
0.124799996614
0.0401000007987
0.0401000007987
0.0401000007987
0.0850000008941
0.0401000007987
0.0401000007987
0.0401000007987
0.0401000007987
0.0401000007987
0.0401000007987

>  <partial_bond_orders>  (429) 
1.0
1.0
1.0
1.0
1.0
1.0
1.0
1.0
1.0
1.0
1.0
1.0
1.0
1.0
1.0
1.0

>  <atom_types>  (429) 
c3
os
c3
os
c3
os
c3
h1
h1
h1
h3
h1
h1
h1
h1
h1
h1

>  <target>  (429) 
-4.42

>  <cal>  (429) 
-4.625

$$$$
mobley_4149784
     RDKit          3D

 22 24  0  0  0  0  0  0  0  0999 V2000
   -1.0040   -0.2570    0.3260 C   0  0  0  0  0  0  0  0  0  0  0  0
   -1.4370   -1.5820    0.2690 C   0  0  0  0  0  0  0  0  0  0  0  0
   -2.7270   -1.9050    0.6890 C   0  0  0  0  0  0  0  0  0  0  0  0
   -3.5800   -0.9100    1.1630 C   0  0  0  0  0  0  0  0  0  0  0  0
   -3.1490    0.4150    1.2200 C   0  0  0  0  0  0  0  0  0  0  0  0
   -1.8580    0.7400    0.8000 C   0  0  0  0  0  0  0  0  0  0  0  0
   -1.3190    2.3730    0.8660 Cl  0  0  0  0  0  0  0  0  0  0  0  0
   -4.8560   -1.1830    1.5850 O   0  0  0  0  0  0  0  0  0  0  0  0
   -5.2390   -2.4980    1.5120 C   0  0  0  0  0  0  0  0  0  0  0  0
   -6.5290   -2.8210    1.9320 C   0  0  0  0  0  0  0  0  0  0  0  0
   -6.9620   -4.1460    1.8750 C   0  0  0  0  0  0  0  0  0  0  0  0
   -6.1070   -5.1430    1.4010 C   0  0  0  0  0  0  0  0  0  0  0  0
   -4.8170   -4.8180    0.9820 C   0  0  0  0  0  0  0  0  0  0  0  0
   -4.3860   -3.4940    1.0380 C   0  0  0  0  0  0  0  0  0  0  0  0
   -3.1090   -3.2200    0.6160 O   0  0  0  0  0  0  0  0  0  0  0  0
   -6.6470   -6.7760    1.3350 Cl  0  0  0  0  0  0  0  0  0  0  0  0
    0.0000    0.0000    0.0000 H   0  0  0  0  0  0  0  0  0  0  0  0
    0.0000    0.0000    0.0000 H   0  0  0  0  0  0  0  0  0  0  0  0
    0.0000    0.0000    0.0000 H   0  0  0  0  0  0  0  0  0  0  0  0
    0.0000    0.0000    0.0000 H   0  0  0  0  0  0  0  0  0  0  0  0
    0.0000    0.0000    0.0000 H   0  0  0  0  0  0  0  0  0  0  0  0
    0.0000    0.0000    0.0000 H   0  0  0  0  0  0  0  0  0  0  0  0
  1  6  2  0
  1  2  1  0
  2  3  2  0
  3 15  1  0
  3  4  1  0
  4  5  2  0
  5  6  1  0
  6  7  1  0
  4  8  1  0
  8  9  1  0
  9 14  2  0
  9 10  1  0
 10 11  2  0
 11 12  1  0
 12 13  2  0
 13 14  1  0
 14 15  1  0
 12 16  1  0
  1 17  1  0
  2 18  1  0
  5 19  1  0
 10 20  1  0
 11 21  1  0
 13 22  1  0
M  END
>  <partial_charges>  (430) 
-0.120999999344
-0.108199998736
0.0623999983072
0.0710999965668
-0.112599998713
0.0187999997288
-0.0798999965191
-0.217999994755
0.0623999983072
-0.108199998736
-0.120800003409
0.0187999997288
-0.112599998713
0.0710999965668
-0.217999994755
-0.0798999965191
0.156000003219
0.16099999845
0.170300006866
0.16099999845
0.156000003219
0.170300006866

>  <partial_bond_orders>  (430) 
2.0
1.0
2.0
1.0
1.0
2.0
1.0
1.0
1.0
1.0
2.0
1.0
2.0
1.0
2.0
1.0
1.0
1.0
1.0
1.0
1.0
1.0
1.0
1.0

>  <atom_types>  (430) 
ca
ca
ca
ca
ca
ca
cl
os
ca
ca
ca
ca
ca
ca
os
cl
ha
ha
ha
ha
ha
ha

>  <target>  (430) 
-3.67

>  <cal>  (430) 
-3.321

$$$$
mobley_6794076
     RDKit          3D

 16 16  0  0  0  0  0  0  0  0999 V2000
    3.7680    0.7170    1.4130 C   0  0  0  0  0  0  0  0  0  0  0  0
    2.3220    0.8750    1.0600 C   0  0  0  0  0  0  0  0  0  0  0  0
    2.0050    1.7850    0.3010 O   0  0  0  0  0  0  0  0  0  0  0  0
    1.3880   -0.0680    1.6520 C   0  0  0  0  0  0  0  0  0  0  0  0
    0.2270   -0.4200    0.9730 C   0  0  0  0  0  0  0  0  0  0  0  0
   -0.6320   -1.3220    1.5800 C   0  0  0  0  0  0  0  0  0  0  0  0
   -0.4090   -1.8820    2.7910 N   0  0  0  0  0  0  0  0  0  0  0  0
    0.7300   -1.5160    3.4210 C   0  0  0  0  0  0  0  0  0  0  0  0
    1.6520   -0.6230    2.9000 C   0  0  0  0  0  0  0  0  0  0  0  0
    0.0000    0.0000    0.0000 H   0  0  0  0  0  0  0  0  0  0  0  0
    0.0000    0.0000    0.0000 H   0  0  0  0  0  0  0  0  0  0  0  0
    0.0000    0.0000    0.0000 H   0  0  0  0  0  0  0  0  0  0  0  0
    0.0000    0.0000    0.0000 H   0  0  0  0  0  0  0  0  0  0  0  0
    0.0000    0.0000    0.0000 H   0  0  0  0  0  0  0  0  0  0  0  0
    0.0000    0.0000    0.0000 H   0  0  0  0  0  0  0  0  0  0  0  0
    0.0000    0.0000    0.0000 H   0  0  0  0  0  0  0  0  0  0  0  0
  1  2  1  0
  2  3  2  0
  2  4  1  0
  4  9  2  0
  4  5  1  0
  5  6  2  0
  6  7  1  0
  7  8  2  0
  8  9  1  0
  1 10  1  0
  1 11  1  0
  1 12  1  0
  5 13  1  0
  6 14  1  0
  8 15  1  0
  9 16  1  0
M  END
>  <partial_charges>  (431) 
-0.198200002313
0.573400020599
-0.52009999752
-0.135199993849
-0.20569999516
0.386299997568
-0.648000001907
0.386299997568
-0.20569999516
0.0679000020027
0.0679000020027
0.0679000020027
0.154300004244
0.0273000001907
0.0273000001907
0.154300004244

>  <partial_bond_orders>  (431) 
1.0
2.0
1.0
2.0
1.0
2.0
1.0
2.0
1.0
1.0
1.0
1.0
1.0
1.0
1.0
1.0

>  <atom_types>  (431) 
c3
c
o
ca
ca
ca
nb
ca
ca
hc
hc
hc
ha
h4
h4
ha

>  <target>  (431) 
-7.62

>  <cal>  (431) 
-7.566

$$$$
mobley_929676
     RDKit          3D

 20 19  0  0  0  0  0  0  0  0999 V2000
   -0.7730   -1.8340    2.5210 C   0  0  0  0  0  0  0  0  0  0  0  0
    0.1780   -1.3550    1.4350 C   0  0  0  0  0  0  0  0  0  0  0  0
   -0.4620   -0.2700    0.5690 C   0  0  0  0  0  0  0  0  0  0  0  0
    0.4980    0.2090   -0.5220 C   0  0  0  0  0  0  0  0  0  0  0  0
   -0.1420    1.2950   -1.3890 C   0  0  0  0  0  0  0  0  0  0  0  0
    0.8170    1.7650   -2.4690 C   0  0  0  0  0  0  0  0  0  0  0  0
   -0.0320    3.1440   -3.5490 Br  0  0  0  0  0  0  0  0  0  0  0  0
    0.0000    0.0000    0.0000 H   0  0  0  0  0  0  0  0  0  0  0  0
    0.0000    0.0000    0.0000 H   0  0  0  0  0  0  0  0  0  0  0  0
    0.0000    0.0000    0.0000 H   0  0  0  0  0  0  0  0  0  0  0  0
    0.0000    0.0000    0.0000 H   0  0  0  0  0  0  0  0  0  0  0  0
    0.0000    0.0000    0.0000 H   0  0  0  0  0  0  0  0  0  0  0  0
    0.0000    0.0000    0.0000 H   0  0  0  0  0  0  0  0  0  0  0  0
    0.0000    0.0000    0.0000 H   0  0  0  0  0  0  0  0  0  0  0  0
    0.0000    0.0000    0.0000 H   0  0  0  0  0  0  0  0  0  0  0  0
    0.0000    0.0000    0.0000 H   0  0  0  0  0  0  0  0  0  0  0  0
    0.0000    0.0000    0.0000 H   0  0  0  0  0  0  0  0  0  0  0  0
    0.0000    0.0000    0.0000 H   0  0  0  0  0  0  0  0  0  0  0  0
    0.0000    0.0000    0.0000 H   0  0  0  0  0  0  0  0  0  0  0  0
    0.0000    0.0000    0.0000 H   0  0  0  0  0  0  0  0  0  0  0  0
  1  2  1  0
  2  3  1  0
  3  4  1  0
  4  5  1  0
  5  6  1  0
  6  7  1  0
  1  8  1  0
  1  9  1  0
  1 10  1  0
  2 11  1  0
  2 12  1  0
  3 13  1  0
  3 14  1  0
  4 15  1  0
  4 16  1  0
  5 17  1  0
  5 18  1  0
  6 19  1  0
  6 20  1  0
M  END
>  <partial_charges>  (432) 
-0.0925000011921
-0.0800999999046
-0.0785000026226
-0.0782999992371
-0.0816999971867
-0.00710000004619
-0.181899994612
0.0340000018477
0.0340000018477
0.0340000018477
0.0384999997914
0.0384999997914
0.0412999987602
0.0412999987602
0.041700001806
0.041700001806
0.055799998343
0.055799998343
0.0718000009656
0.0718000009656

>  <partial_bond_orders>  (432) 
1.0
1.0
1.0
1.0
1.0
1.0
1.0
1.0
1.0
1.0
1.0
1.0
1.0
1.0
1.0
1.0
1.0
1.0
1.0

>  <atom_types>  (432) 
c3
c3
c3
c3
c3
c3
br
hc
hc
hc
hc
hc
hc
hc
hc
hc
hc
hc
h1
h1

>  <target>  (432) 
0.18

>  <cal>  (432) 
1.076

$$$$
mobley_3775790
     RDKit          3D

 13 13  0  0  0  0  0  0  0  0999 V2000
   -0.2320   -0.5270    4.5820 C   0  0  0  0  0  0  0  0  0  0  0  0
    0.2320   -0.2130    3.2490 N   0  0  0  0  0  0  0  0  0  0  0  0
   -0.4890   -0.3990    2.0980 C   0  0  0  0  0  0  0  0  0  0  0  0
    0.2890    0.0200    1.0410 C   0  0  0  0  0  0  0  0  0  0  0  0
    1.5200    0.4730    1.5760 C   0  0  0  0  0  0  0  0  0  0  0  0
    1.4580    0.3170    2.9430 C   0  0  0  0  0  0  0  0  0  0  0  0
    0.0000    0.0000    0.0000 H   0  0  0  0  0  0  0  0  0  0  0  0
    0.0000    0.0000    0.0000 H   0  0  0  0  0  0  0  0  0  0  0  0
    0.0000    0.0000    0.0000 H   0  0  0  0  0  0  0  0  0  0  0  0
    0.0000    0.0000    0.0000 H   0  0  0  0  0  0  0  0  0  0  0  0
    0.0000    0.0000    0.0000 H   0  0  0  0  0  0  0  0  0  0  0  0
    0.0000    0.0000    0.0000 H   0  0  0  0  0  0  0  0  0  0  0  0
    0.0000    0.0000    0.0000 H   0  0  0  0  0  0  0  0  0  0  0  0
  1  2  1  0
  2  6  1  0
  2  3  1  0
  3  4  2  0
  4  5  1  0
  5  6  2  0
  1  7  1  0
  1  8  1  0
  1  9  1  0
  3 10  1  0
  4 11  1  0
  5 12  1  0
  6 13  1  0
M  END
>  <partial_charges>  (433) 
0.0236000008881
-0.0688999965787
-0.164800003171
-0.196500003338
-0.196500003338
-0.164800003171
0.0480999983847
0.0480999983847
0.0480999983847
0.162200003862
0.149599999189
0.149599999189
0.162200003862

>  <partial_bond_orders>  (433) 
1.0
1.0
1.0
2.0
1.0
2.0
1.0
1.0
1.0
1.0
1.0
1.0
1.0

>  <atom_types>  (433) 
c3
na
cc
cd
cd
cc
h1
h1
h1
h4
ha
ha
h4

>  <target>  (433) 
-2.89

>  <cal>  (433) 
-2.374

$$$$
mobley_8772587
     RDKit          3D

 14 13  0  0  0  0  0  0  0  0999 V2000
   -0.0300    0.4280    1.0060 C   0  0  0  0  0  0  0  0  0  0  0  0
    0.7900   -0.4200    1.9650 C   0  0  0  0  0  0  0  0  0  0  0  0
    0.7700    0.1560    3.3810 C   0  0  0  0  0  0  0  0  0  0  0  0
    1.5980   -0.7030    4.3370 C   0  0  0  0  0  0  0  0  0  0  0  0
    1.5600    0.1150    6.3120 I   0  0  0  0  0  0  0  0  0  0  0  0
    0.0000    0.0000    0.0000 H   0  0  0  0  0  0  0  0  0  0  0  0
    0.0000    0.0000    0.0000 H   0  0  0  0  0  0  0  0  0  0  0  0
    0.0000    0.0000    0.0000 H   0  0  0  0  0  0  0  0  0  0  0  0
    0.0000    0.0000    0.0000 H   0  0  0  0  0  0  0  0  0  0  0  0
    0.0000    0.0000    0.0000 H   0  0  0  0  0  0  0  0  0  0  0  0
    0.0000    0.0000    0.0000 H   0  0  0  0  0  0  0  0  0  0  0  0
    0.0000    0.0000    0.0000 H   0  0  0  0  0  0  0  0  0  0  0  0
    0.0000    0.0000    0.0000 H   0  0  0  0  0  0  0  0  0  0  0  0
    0.0000    0.0000    0.0000 H   0  0  0  0  0  0  0  0  0  0  0  0
  1  2  1  0
  2  3  1  0
  3  4  1  0
  4  5  1  0
  1  6  1  0
  1  7  1  0
  1  8  1  0
  2  9  1  0
  2 10  1  0
  3 11  1  0
  3 12  1  0
  4 13  1  0
  4 14  1  0
M  END
>  <partial_charges>  (434) 
-0.0922999978065
-0.0807000026107
-0.076700001955
0.0705000013113
-0.25490000844
0.0355999991298
0.0355999991298
0.0355999991298
0.0399000011384
0.0399000011384
0.0527999997139
0.0527999997139
0.0710000023246
0.0710000023246

>  <partial_bond_orders>  (434) 
1.0
1.0
1.0
1.0
1.0
1.0
1.0
1.0
1.0
1.0
1.0
1.0
1.0

>  <atom_types>  (434) 
c3
c3
c3
c3
i
hc
hc
hc
hc
hc
hc
hc
h1
h1

>  <target>  (434) 
-0.25

>  <cal>  (434) 
-0.223

$$$$
mobley_4305650
     RDKit          3D

  9  8  0  0  0  0  0  0  0  0999 V2000
    0.6420   -0.7480    0.4850 C   0  0  0  0  0  0  0  0  0  0  0  0
    1.1890   -0.1850    1.7560 C   0  0  0  0  0  0  0  0  0  0  0  0
    2.0230   -1.2470    2.3250 C   0  0  0  0  0  0  0  0  0  0  0  0
    2.6860   -2.0830    2.7820 N   0  0  0  0  0  0  0  0  0  0  0  0
    0.0000    0.0000    0.0000 H   0  0  0  0  0  0  0  0  0  0  0  0
    0.0000    0.0000    0.0000 H   0  0  0  0  0  0  0  0  0  0  0  0
    0.0000    0.0000    0.0000 H   0  0  0  0  0  0  0  0  0  0  0  0
    0.0000    0.0000    0.0000 H   0  0  0  0  0  0  0  0  0  0  0  0
    0.0000    0.0000    0.0000 H   0  0  0  0  0  0  0  0  0  0  0  0
  1  2  1  0
  2  3  1  0
  3  4  3  0
  1  5  1  0
  1  6  1  0
  1  7  1  0
  2  8  1  0
  2  9  1  0
M  END
>  <partial_charges>  (435) 
-0.0942000001669
-0.0233999993652
0.209299996495
-0.376300007105
0.0465999990702
0.0465999990702
0.0465999990702
0.0723000019789
0.0723000019789

>  <partial_bond_orders>  (435) 
1.0
1.0
3.0
1.0
1.0
1.0
1.0
1.0

>  <atom_types>  (435) 
c3
c3
c1
n1
hc
hc
hc
hc
hc

>  <target>  (435) 
-3.84

>  <cal>  (435) 
-2.491

$$$$
mobley_1636752
     RDKit          3D

  6  5  0  0  0  0  0  0  0  0999 V2000
    0.2830    0.7680    0.7240 C   0  0  0  0  0  0  0  0  0  0  0  0
   -0.3110    2.0010    0.3620 O   0  0  0  0  0  0  0  0  0  0  0  0
    0.0000    0.0000    0.0000 H   0  0  0  0  0  0  0  0  0  0  0  0
    0.0000    0.0000    0.0000 H   0  0  0  0  0  0  0  0  0  0  0  0
    0.0000    0.0000    0.0000 H   0  0  0  0  0  0  0  0  0  0  0  0
    0.0000    0.0000    0.0000 H   0  0  0  0  0  0  0  0  0  0  0  0
  1  2  1  0
  1  3  1  0
  1  4  1  0
  1  5  1  0
  2  6  1  0
M  END
>  <partial_charges>  (436) 
0.116599999368
-0.598500013351
0.0285000000149
0.0285000000149
0.0285000000149
0.396499991417

>  <partial_bond_orders>  (436) 
1.0
1.0
1.0
1.0
1.0

>  <atom_types>  (436) 
c3
oh
h1
h1
h1
ho

>  <target>  (436) 
-5.1

>  <cal>  (436) 
-3.491

$$$$
mobley_3589456
     RDKit          3D

 20 19  0  0  0  0  0  0  0  0999 V2000
    0.3040   -0.2570    2.3760 C   0  0  0  0  0  0  0  0  0  0  0  0
   -0.3450   -0.8630    1.2640 O   0  0  0  0  0  0  0  0  0  0  0  0
    0.0330   -0.2960   -0.0120 C   0  0  0  0  0  0  0  0  0  0  0  0
   -0.7700   -1.0800   -1.0730 C   0  0  0  0  0  0  0  0  0  0  0  0
   -0.4010   -2.8280   -1.0460 Cl  0  0  0  0  0  0  0  0  0  0  0  0
    1.4480   -0.4950   -0.2270 O   0  0  0  0  0  0  0  0  0  0  0  0
    1.9600    0.0160   -1.4510 C   0  0  0  0  0  0  0  0  0  0  0  0
   -0.2810    1.1110   -0.0720 O   0  0  0  0  0  0  0  0  0  0  0  0
   -1.6510    1.4500    0.0920 C   0  0  0  0  0  0  0  0  0  0  0  0
    0.0000    0.0000    0.0000 H   0  0  0  0  0  0  0  0  0  0  0  0
    0.0000    0.0000    0.0000 H   0  0  0  0  0  0  0  0  0  0  0  0
    0.0000    0.0000    0.0000 H   0  0  0  0  0  0  0  0  0  0  0  0
    0.0000    0.0000    0.0000 H   0  0  0  0  0  0  0  0  0  0  0  0
    0.0000    0.0000    0.0000 H   0  0  0  0  0  0  0  0  0  0  0  0
    0.0000    0.0000    0.0000 H   0  0  0  0  0  0  0  0  0  0  0  0
    0.0000    0.0000    0.0000 H   0  0  0  0  0  0  0  0  0  0  0  0
    0.0000    0.0000    0.0000 H   0  0  0  0  0  0  0  0  0  0  0  0
    0.0000    0.0000    0.0000 H   0  0  0  0  0  0  0  0  0  0  0  0
    0.0000    0.0000    0.0000 H   0  0  0  0  0  0  0  0  0  0  0  0
    0.0000    0.0000    0.0000 H   0  0  0  0  0  0  0  0  0  0  0  0
  1  2  1  0
  2  3  1  0
  3  4  1  0
  4  5  1  0
  3  6  1  0
  6  7  1  0
  3  8  1  0
  8  9  1  0
  1 10  1  0
  1 11  1  0
  1 12  1  0
  4 13  1  0
  4 14  1  0
  7 15  1  0
  7 16  1  0
  7 17  1  0
  9 18  1  0
  9 19  1  0
  9 20  1  0
M  END
>  <partial_charges>  (437) 
0.129899993539
-0.440200001001
0.522400021553
0.00490000005811
-0.14280000329
-0.440200001001
0.129899993539
-0.440200001001
0.129899993539
0.042500000447
0.042500000447
0.042500000447
0.0821999981999
0.0821999981999
0.042500000447
0.042500000447
0.042500000447
0.042500000447
0.042500000447
0.042500000447

>  <partial_bond_orders>  (437) 
1.0
1.0
1.0
1.0
1.0
1.0
1.0
1.0
1.0
1.0
1.0
1.0
1.0
1.0
1.0
1.0
1.0
1.0
1.0

>  <atom_types>  (437) 
c3
os
c3
c3
cl
os
c3
os
c3
h1
h1
h1
h1
h1
h1
h1
h1
h1
h1
h1

>  <target>  (437) 
-4.59

>  <cal>  (437) 
-3.638

$$$$
mobley_8713762
     RDKit          3D

 34 33  0  0  0  0  0  0  0  0999 V2000
    0.5640   -0.4710   -1.7460 C   0  0  0  0  0  0  0  0  0  0  0  0
    0.3960   -0.2380   -0.2520 C   0  0  0  0  0  0  0  0  0  0  0  0
   -0.9770   -0.6580    0.2590 C   0  0  0  0  0  0  0  0  0  0  0  0
   -1.1300   -0.4300    1.6970 N   0  0  0  0  0  0  0  0  0  0  0  0
   -1.6470    0.8390    2.1960 C   0  0  0  0  0  0  0  0  0  0  0  0
   -3.1570    0.8140    2.3280 C   0  0  0  0  0  0  0  0  0  0  0  0
   -3.7310    2.1250    2.8470 C   0  0  0  0  0  0  0  0  0  0  0  0
   -0.7820   -1.4290    2.6200 C   0  0  0  0  0  0  0  0  0  0  0  0
   -0.8860   -1.3050    3.8380 O   0  0  0  0  0  0  0  0  0  0  0  0
   -0.1360   -2.9330    1.9400 S   0  0  0  0  0  0  0  0  0  0  0  0
    0.1600   -3.8890    3.4430 C   0  0  0  0  0  0  0  0  0  0  0  0
    0.7350   -5.2640    3.1080 C   0  0  0  0  0  0  0  0  0  0  0  0
    0.9890   -6.0820    4.3660 C   0  0  0  0  0  0  0  0  0  0  0  0
    0.0000    0.0000    0.0000 H   0  0  0  0  0  0  0  0  0  0  0  0
    0.0000    0.0000    0.0000 H   0  0  0  0  0  0  0  0  0  0  0  0
    0.0000    0.0000    0.0000 H   0  0  0  0  0  0  0  0  0  0  0  0
    0.0000    0.0000    0.0000 H   0  0  0  0  0  0  0  0  0  0  0  0
    0.0000    0.0000    0.0000 H   0  0  0  0  0  0  0  0  0  0  0  0
    0.0000    0.0000    0.0000 H   0  0  0  0  0  0  0  0  0  0  0  0
    0.0000    0.0000    0.0000 H   0  0  0  0  0  0  0  0  0  0  0  0
    0.0000    0.0000    0.0000 H   0  0  0  0  0  0  0  0  0  0  0  0
    0.0000    0.0000    0.0000 H   0  0  0  0  0  0  0  0  0  0  0  0
    0.0000    0.0000    0.0000 H   0  0  0  0  0  0  0  0  0  0  0  0
    0.0000    0.0000    0.0000 H   0  0  0  0  0  0  0  0  0  0  0  0
    0.0000    0.0000    0.0000 H   0  0  0  0  0  0  0  0  0  0  0  0
    0.0000    0.0000    0.0000 H   0  0  0  0  0  0  0  0  0  0  0  0
    0.0000    0.0000    0.0000 H   0  0  0  0  0  0  0  0  0  0  0  0
    0.0000    0.0000    0.0000 H   0  0  0  0  0  0  0  0  0  0  0  0
    0.0000    0.0000    0.0000 H   0  0  0  0  0  0  0  0  0  0  0  0
    0.0000    0.0000    0.0000 H   0  0  0  0  0  0  0  0  0  0  0  0
    0.0000    0.0000    0.0000 H   0  0  0  0  0  0  0  0  0  0  0  0
    0.0000    0.0000    0.0000 H   0  0  0  0  0  0  0  0  0  0  0  0
    0.0000    0.0000    0.0000 H   0  0  0  0  0  0  0  0  0  0  0  0
    0.0000    0.0000    0.0000 H   0  0  0  0  0  0  0  0  0  0  0  0
  1  2  1  0
  2  3  1  0
  3  4  1  0
  4  5  1  0
  5  6  1  0
  6  7  1  0
  4  8  1  0
  8  9  2  0
  8 10  1  0
 10 11  1  0
 11 12  1  0
 12 13  1  0
  1 14  1  0
  1 15  1  0
  1 16  1  0
  2 17  1  0
  2 18  1  0
  3 19  1  0
  3 20  1  0
  5 21  1  0
  5 22  1  0
  6 23  1  0
  6 24  1  0
  7 25  1  0
  7 26  1  0
  7 27  1  0
 11 28  1  0
 11 29  1  0
 12 30  1  0
 12 31  1  0
 13 32  1  0
 13 33  1  0
 13 34  1  0
M  END
>  <partial_charges>  (438) 
-0.0945999994874
-0.0957999974489
0.0909999981523
-0.46250000596
0.0909999981523
-0.0957999974489
-0.0945999994874
0.69010001421
-0.608600020409
-0.278600007296
0.00910000037402
-0.0764999985695
-0.0907000005245
0.0379000008106
0.0379000008106
0.0379000008106
0.0445999987423
0.0445999987423
0.0579999983311
0.0579999983311
0.0579999983311
0.0579999983311
0.0445999987423
0.0445999987423
0.0379000008106
0.0379000008106
0.0379000008106
0.0812999978662
0.0812999978662
0.0516999997199
0.0516999997199
0.0375999994576
0.0375999994576
0.0375999994576

>  <partial_bond_orders>  (438) 
1.0
1.0
1.0
1.0
1.0
1.0
1.0
2.0
1.0
1.0
1.0
1.0
1.0
1.0
1.0
1.0
1.0
1.0
1.0
1.0
1.0
1.0
1.0
1.0
1.0
1.0
1.0
1.0
1.0
1.0
1.0
1.0
1.0

>  <atom_types>  (438) 
c3
c3
c3
n
c3
c3
c3
c
o
ss
c3
c3
c3
hc
hc
hc
hc
hc
h1
h1
h1
h1
hc
hc
hc
hc
hc
h1
h1
hc
hc
hc
hc
hc

>  <target>  (438) 
-4.13

>  <cal>  (438) 
-4.569

$$$$
mobley_299266
     RDKit          3D

 12 11  0  0  0  0  0  0  0  0999 V2000
    1.7630   -2.7440    1.2190 C   0  0  0  0  0  0  0  0  0  0  0  0
    1.1100   -1.7850    0.2680 C   0  0  0  0  0  0  0  0  0  0  0  0
    0.4690   -0.6870    0.6960 C   0  0  0  0  0  0  0  0  0  0  0  0
    1.2140   -2.1250   -1.1890 C   0  0  0  0  0  0  0  0  0  0  0  0
    0.0000    0.0000    0.0000 H   0  0  0  0  0  0  0  0  0  0  0  0
    0.0000    0.0000    0.0000 H   0  0  0  0  0  0  0  0  0  0  0  0
    0.0000    0.0000    0.0000 H   0  0  0  0  0  0  0  0  0  0  0  0
    0.0000    0.0000    0.0000 H   0  0  0  0  0  0  0  0  0  0  0  0
    0.0000    0.0000    0.0000 H   0  0  0  0  0  0  0  0  0  0  0  0
    0.0000    0.0000    0.0000 H   0  0  0  0  0  0  0  0  0  0  0  0
    0.0000    0.0000    0.0000 H   0  0  0  0  0  0  0  0  0  0  0  0
    0.0000    0.0000    0.0000 H   0  0  0  0  0  0  0  0  0  0  0  0
  1  2  1  0
  2  3  2  3
  2  4  1  0
  1  5  1  0
  1  6  1  0
  1  7  1  0
  3  8  1  0
  3  9  1  0
  4 10  1  0
  4 11  1  0
  4 12  1  0
M  END
>  <partial_charges>  (439) 
-0.0631999969482
-0.110200002789
-0.231999993324
-0.0631999969482
0.0410000011325
0.0410000011325
0.0410000011325
0.111199997365
0.111199997365
0.0410000011325
0.0410000011325
0.0410000011325

>  <partial_bond_orders>  (439) 
1.0
2.0
1.0
1.0
1.0
1.0
1.0
1.0
1.0
1.0
1.0

>  <atom_types>  (439) 
c3
c2
c2
c3
hc
hc
hc
ha
ha
hc
hc
hc

>  <target>  (439) 
1.16

>  <cal>  (439) 
2.327

$$$$
mobley_8522124
     RDKit          3D

 22 21  0  0  0  0  0  0  0  0999 V2000
    1.8120    2.4180    1.8770 C   0  0  0  0  0  0  0  0  0  0  0  0
    1.6000    1.0790    1.1880 C   0  0  0  0  0  0  0  0  0  0  0  0
    0.1490    0.9040    0.7410 C   0  0  0  0  0  0  0  0  0  0  0  0
   -0.0610   -0.4450    0.0480 C   0  0  0  0  0  0  0  0  0  0  0  0
   -1.5160   -0.6190   -0.3990 C   0  0  0  0  0  0  0  0  0  0  0  0
   -1.7680   -1.9560   -1.0970 C   0  0  0  0  0  0  0  0  0  0  0  0
   -3.1670   -2.1100   -1.5210 C   0  0  0  0  0  0  0  0  0  0  0  0
   -4.3090   -2.2400   -1.8680 C   0  0  0  0  0  0  0  0  0  0  0  0
    0.0000    0.0000    0.0000 H   0  0  0  0  0  0  0  0  0  0  0  0
    0.0000    0.0000    0.0000 H   0  0  0  0  0  0  0  0  0  0  0  0
    0.0000    0.0000    0.0000 H   0  0  0  0  0  0  0  0  0  0  0  0
    0.0000    0.0000    0.0000 H   0  0  0  0  0  0  0  0  0  0  0  0
    0.0000    0.0000    0.0000 H   0  0  0  0  0  0  0  0  0  0  0  0
    0.0000    0.0000    0.0000 H   0  0  0  0  0  0  0  0  0  0  0  0
    0.0000    0.0000    0.0000 H   0  0  0  0  0  0  0  0  0  0  0  0
    0.0000    0.0000    0.0000 H   0  0  0  0  0  0  0  0  0  0  0  0
    0.0000    0.0000    0.0000 H   0  0  0  0  0  0  0  0  0  0  0  0
    0.0000    0.0000    0.0000 H   0  0  0  0  0  0  0  0  0  0  0  0
    0.0000    0.0000    0.0000 H   0  0  0  0  0  0  0  0  0  0  0  0
    0.0000    0.0000    0.0000 H   0  0  0  0  0  0  0  0  0  0  0  0
    0.0000    0.0000    0.0000 H   0  0  0  0  0  0  0  0  0  0  0  0
    0.0000    0.0000    0.0000 H   0  0  0  0  0  0  0  0  0  0  0  0
  1  2  1  0
  2  3  1  0
  3  4  1  0
  4  5  1  0
  5  6  1  0
  6  7  1  0
  7  8  3  0
  1  9  1  0
  1 10  1  0
  1 11  1  0
  2 12  1  0
  2 13  1  0
  3 14  1  0
  3 15  1  0
  4 16  1  0
  4 17  1  0
  5 18  1  0
  5 19  1  0
  6 20  1  0
  6 21  1  0
  8 22  1  0
M  END
>  <partial_charges>  (440) 
-0.0930000022054
-0.0794000029564
-0.0790000036359
-0.0785999968648
-0.0722000002861
-0.00600000005215
-0.134000003338
-0.166899994016
0.0324000008404
0.0324000008404
0.0324000008404
0.0377999991179
0.0377999991179
0.0394000001252
0.0394000001252
0.0436999984086
0.0436999984086
0.0447999984026
0.0447999984026
0.0588000006974
0.0588000006974
0.162900000811

>  <partial_bond_orders>  (440) 
1.0
1.0
1.0
1.0
1.0
1.0
3.0
1.0
1.0
1.0
1.0
1.0
1.0
1.0
1.0
1.0
1.0
1.0
1.0
1.0
1.0

>  <atom_types>  (440) 
c3
c3
c3
c3
c3
c3
c1
c1
hc
hc
hc
hc
hc
hc
hc
hc
hc
hc
hc
hc
hc
ha

>  <target>  (440) 
0.71

>  <cal>  (440) 
0.832

$$$$
mobley_8426916
     RDKit          3D

 16 15  0  0  0  0  0  0  0  0999 V2000
    1.5860   -1.2300    2.8930 C   0  0  0  0  0  0  0  0  0  0  0  0
    1.2110   -0.9760    1.4720 C   0  0  0  0  0  0  0  0  0  0  0  0
    2.3150   -1.2360    0.5900 N   0  0  0  0  0  0  0  0  0  0  0  0
    1.9590   -0.9910   -0.8080 C   0  0  0  0  0  0  0  0  0  0  0  0
    3.1190   -1.2690   -1.6870 C   0  0  0  0  0  0  0  0  0  0  0  0
    0.0000    0.0000    0.0000 H   0  0  0  0  0  0  0  0  0  0  0  0
    0.0000    0.0000    0.0000 H   0  0  0  0  0  0  0  0  0  0  0  0
    0.0000    0.0000    0.0000 H   0  0  0  0  0  0  0  0  0  0  0  0
    0.0000    0.0000    0.0000 H   0  0  0  0  0  0  0  0  0  0  0  0
    0.0000    0.0000    0.0000 H   0  0  0  0  0  0  0  0  0  0  0  0
    0.0000    0.0000    0.0000 H   0  0  0  0  0  0  0  0  0  0  0  0
    0.0000    0.0000    0.0000 H   0  0  0  0  0  0  0  0  0  0  0  0
    0.0000    0.0000    0.0000 H   0  0  0  0  0  0  0  0  0  0  0  0
    0.0000    0.0000    0.0000 H   0  0  0  0  0  0  0  0  0  0  0  0
    0.0000    0.0000    0.0000 H   0  0  0  0  0  0  0  0  0  0  0  0
    0.0000    0.0000    0.0000 H   0  0  0  0  0  0  0  0  0  0  0  0
  1  2  1  0
  2  3  1  0
  3  4  1  0
  4  5  1  0
  1  6  1  0
  1  7  1  0
  1  8  1  0
  2  9  1  0
  2 10  1  0
  3 11  1  0
  4 12  1  0
  4 13  1  0
  5 14  1  0
  5 15  1  0
  5 16  1  0
M  END
>  <partial_charges>  (441) 
-0.0960000008345
0.169200003147
-0.835399985313
0.169200003147
-0.0960000008345
0.0384999997914
0.0384999997914
0.0384999997914
0.0250000003725
0.0250000003725
0.358099997044
0.0250000003725
0.0250000003725
0.0384999997914
0.0384999997914
0.0384999997914

>  <partial_bond_orders>  (441) 
1.0
1.0
1.0
1.0
1.0
1.0
1.0
1.0
1.0
1.0
1.0
1.0
1.0
1.0
1.0

>  <atom_types>  (441) 
c3
c3
n3
c3
c3
hc
hc
hc
h1
h1
hn
h1
h1
hc
hc
hc

>  <target>  (441) 
-4.07

>  <cal>  (441) 
-2.986

$$$$
mobley_397645
     RDKit          3D

 21 21  0  0  0  0  0  0  0  0999 V2000
   -0.8760   -1.0410   -3.9100 C   0  0  0  0  0  0  0  0  0  0  0  0
    0.5830   -1.0170   -3.5060 C   0  0  0  0  0  0  0  0  0  0  0  0
    0.6720   -1.0340   -2.0770 O   0  0  0  0  0  0  0  0  0  0  0  0
    1.9290   -1.0160   -1.5660 C   0  0  0  0  0  0  0  0  0  0  0  0
    2.9700   -0.9870   -2.2040 O   0  0  0  0  0  0  0  0  0  0  0  0
    1.8850   -1.0360   -0.1120 C   0  0  0  0  0  0  0  0  0  0  0  0
    2.9210   -1.6310    0.6080 C   0  0  0  0  0  0  0  0  0  0  0  0
    2.8780   -1.6520    2.0020 C   0  0  0  0  0  0  0  0  0  0  0  0
    1.8000   -1.0790    2.6760 C   0  0  0  0  0  0  0  0  0  0  0  0
    0.7640   -0.4840    1.9550 C   0  0  0  0  0  0  0  0  0  0  0  0
    0.8070   -0.4630    0.5610 C   0  0  0  0  0  0  0  0  0  0  0  0
    0.0000    0.0000    0.0000 H   0  0  0  0  0  0  0  0  0  0  0  0
    0.0000    0.0000    0.0000 H   0  0  0  0  0  0  0  0  0  0  0  0
    0.0000    0.0000    0.0000 H   0  0  0  0  0  0  0  0  0  0  0  0
    0.0000    0.0000    0.0000 H   0  0  0  0  0  0  0  0  0  0  0  0
    0.0000    0.0000    0.0000 H   0  0  0  0  0  0  0  0  0  0  0  0
    0.0000    0.0000    0.0000 H   0  0  0  0  0  0  0  0  0  0  0  0
    0.0000    0.0000    0.0000 H   0  0  0  0  0  0  0  0  0  0  0  0
    0.0000    0.0000    0.0000 H   0  0  0  0  0  0  0  0  0  0  0  0
    0.0000    0.0000    0.0000 H   0  0  0  0  0  0  0  0  0  0  0  0
    0.0000    0.0000    0.0000 H   0  0  0  0  0  0  0  0  0  0  0  0
  1  2  1  0
  2  3  1  0
  3  4  1  0
  4  5  2  0
  4  6  1  0
  6 11  2  0
  6  7  1  0
  7  8  2  0
  8  9  1  0
  9 10  2  0
 10 11  1  0
  1 12  1  0
  1 13  1  0
  1 14  1  0
  2 15  1  0
  2 16  1  0
  7 17  1  0
  8 18  1  0
  9 19  1  0
 10 20  1  0
 11 21  1  0
M  END
>  <partial_charges>  (442) 
-0.0995000004768
0.133200004697
-0.436699986458
0.647599995136
-0.536099970341
-0.133900001645
-0.0732000023127
-0.144899994135
-0.0995000004768
-0.144899994135
-0.0732000023127
0.0474000014365
0.0474000014365
0.0474000014365
0.0494000017643
0.0494000017643
0.15340000391
0.139100000262
0.135299995542
0.139100000262
0.15340000391

>  <partial_bond_orders>  (442) 
1.0
1.0
1.0
2.0
1.0
2.0
1.0
2.0
1.0
2.0
1.0
1.0
1.0
1.0
1.0
1.0
1.0
1.0
1.0
1.0
1.0

>  <atom_types>  (442) 
c3
c3
os
c
o
ca
ca
ca
ca
ca
ca
hc
hc
hc
h1
h1
ha
ha
ha
ha
ha

>  <target>  (442) 
-3.64

>  <cal>  (442) 
-4.597

$$$$
mobley_1323538
     RDKit          3D

 26 25  0  0  0  0  0  0  0  0999 V2000
   -0.3560    0.1900    0.1430 C   0  0  0  0  0  0  0  0  0  0  0  0
    1.0020   -0.2850   -0.3280 C   0  0  0  0  0  0  0  0  0  0  0  0
    1.0800   -0.1390   -1.7360 O   0  0  0  0  0  0  0  0  0  0  0  0
    2.4480   -0.5830   -2.4830 P   0  0  0  0  0  0  0  0  0  0  0  0
    2.8150   -2.0290   -2.3080 O   0  0  0  0  0  0  0  0  0  0  0  0
    2.1850   -0.1340   -4.0170 O   0  0  0  0  0  0  0  0  0  0  0  0
    3.2020   -0.3770   -4.9750 C   0  0  0  0  0  0  0  0  0  0  0  0
    2.7380    0.1230   -6.3270 C   0  0  0  0  0  0  0  0  0  0  0  0
    3.5620    0.4610   -1.9410 O   0  0  0  0  0  0  0  0  0  0  0  0
    3.4020    1.8520   -2.1600 C   0  0  0  0  0  0  0  0  0  0  0  0
    4.5780    2.5880   -1.5540 C   0  0  0  0  0  0  0  0  0  0  0  0
    0.0000    0.0000    0.0000 H   0  0  0  0  0  0  0  0  0  0  0  0
    0.0000    0.0000    0.0000 H   0  0  0  0  0  0  0  0  0  0  0  0
    0.0000    0.0000    0.0000 H   0  0  0  0  0  0  0  0  0  0  0  0
    0.0000    0.0000    0.0000 H   0  0  0  0  0  0  0  0  0  0  0  0
    0.0000    0.0000    0.0000 H   0  0  0  0  0  0  0  0  0  0  0  0
    0.0000    0.0000    0.0000 H   0  0  0  0  0  0  0  0  0  0  0  0
    0.0000    0.0000    0.0000 H   0  0  0  0  0  0  0  0  0  0  0  0
    0.0000    0.0000    0.0000 H   0  0  0  0  0  0  0  0  0  0  0  0
    0.0000    0.0000    0.0000 H   0  0  0  0  0  0  0  0  0  0  0  0
    0.0000    0.0000    0.0000 H   0  0  0  0  0  0  0  0  0  0  0  0
    0.0000    0.0000    0.0000 H   0  0  0  0  0  0  0  0  0  0  0  0
    0.0000    0.0000    0.0000 H   0  0  0  0  0  0  0  0  0  0  0  0
    0.0000    0.0000    0.0000 H   0  0  0  0  0  0  0  0  0  0  0  0
    0.0000    0.0000    0.0000 H   0  0  0  0  0  0  0  0  0  0  0  0
    0.0000    0.0000    0.0000 H   0  0  0  0  0  0  0  0  0  0  0  0
  1  2  1  0
  2  3  1  0
  3  4  1  0
  4  5  2  0
  4  6  1  0
  6  7  1  0
  7  8  1  0
  4  9  1  0
  9 10  1  0
 10 11  1  0
  1 12  1  0
  1 13  1  0
  1 14  1  0
  2 15  1  0
  2 16  1  0
  7 17  1  0
  7 18  1  0
  8 19  1  0
  8 20  1  0
  8 21  1  0
 10 22  1  0
 10 23  1  0
 11 24  1  0
 11 25  1  0
 11 26  1  0
M  END
>  <partial_charges>  (443) 
-0.122100003064
0.173199996352
-0.57950001955
1.61510002613
-0.802299976349
-0.57950001955
0.173199996352
-0.122100003064
-0.57950001955
0.173199996352
-0.122100003064
0.0485000014305
0.0485000014305
0.0485000014305
0.0560000017285
0.0560000017285
0.0560000017285
0.0560000017285
0.0485000014305
0.0485000014305
0.0485000014305
0.0560000017285
0.0560000017285
0.0485000014305
0.0485000014305
0.0485000014305

>  <partial_bond_orders>  (443) 
1.0
1.0
1.0
2.0
1.0
1.0
1.0
1.0
1.0
1.0
1.0
1.0
1.0
1.0
1.0
1.0
1.0
1.0
1.0
1.0
1.0
1.0
1.0
1.0
1.0

>  <atom_types>  (443) 
c3
c3
os
p5
o
os
c3
c3
os
c3
c3
hc
hc
hc
h1
h1
h1
h1
hc
hc
hc
h1
h1
hc
hc
hc

>  <target>  (443) 
-7.5

>  <cal>  (443) 
-10.251

$$$$
mobley_8916409
     RDKit          3D

 38 37  0  0  1  0  0  0  0  0999 V2000
   -2.5180   -5.5060   -1.2600 C   0  0  0  0  0  0  0  0  0  0  0  0
   -3.2090   -4.3500   -0.5680 C   0  0  0  0  0  0  0  0  0  0  0  0
   -3.2470   -3.2300   -1.4580 O   0  0  0  0  0  0  0  0  0  0  0  0
   -3.8470   -2.1060   -0.9640 C   0  0  0  0  0  0  0  0  0  0  0  0
   -4.3400   -1.9880    0.1490 O   0  0  0  0  0  0  0  0  0  0  0  0
   -3.7770   -1.0120   -2.0100 C   0  0  0  0  0  0  0  0  0  0  0  0
   -4.4780   -1.3790   -3.3210 C   0  0  0  0  0  0  0  0  0  0  0  0
   -4.3600   -0.2320   -4.3070 C   0  0  0  0  0  0  0  0  0  0  0  0
   -5.1530    0.6930   -4.4250 O   0  0  0  0  0  0  0  0  0  0  0  0
   -3.2390   -0.4160   -5.0700 O   0  0  0  0  0  0  0  0  0  0  0  0
   -3.0080    0.5730   -6.0780 C   0  0  0  0  0  0  0  0  0  0  0  0
   -1.7410    0.2180   -6.8200 C   0  0  0  0  0  0  0  0  0  0  0  0
   -6.2440   -1.7600   -3.0510 S   0  0  0  0  0  0  0  0  0  0  0  0
   -6.8220   -2.8860   -4.7550 P   0  0  0  0  0  0  0  0  0  0  0  0
   -8.6800   -3.5060   -4.8630 S   0  0  0  0  0  0  0  0  0  0  0  0
   -6.3760   -2.0310   -6.0750 O   0  0  0  0  0  0  0  0  0  0  0  0
   -6.2350   -2.6740   -7.3310 C   0  0  0  0  0  0  0  0  0  0  0  0
   -5.7550   -4.1150   -4.9100 O   0  0  0  0  0  0  0  0  0  0  0  0
   -5.6020   -5.0670   -3.8700 C   0  0  0  0  0  0  0  0  0  0  0  0
    0.0000    0.0000    0.0000 H   0  0  0  0  0  0  0  0  0  0  0  0
    0.0000    0.0000    0.0000 H   0  0  0  0  0  0  0  0  0  0  0  0
    0.0000    0.0000    0.0000 H   0  0  0  0  0  0  0  0  0  0  0  0
    0.0000    0.0000    0.0000 H   0  0  0  0  0  0  0  0  0  0  0  0
    0.0000    0.0000    0.0000 H   0  0  0  0  0  0  0  0  0  0  0  0
    0.0000    0.0000    0.0000 H   0  0  0  0  0  0  0  0  0  0  0  0
    0.0000    0.0000    0.0000 H   0  0  0  0  0  0  0  0  0  0  0  0
    0.0000    0.0000    0.0000 H   0  0  0  0  0  0  0  0  0  0  0  0
    0.0000    0.0000    0.0000 H   0  0  0  0  0  0  0  0  0  0  0  0
    0.0000    0.0000    0.0000 H   0  0  0  0  0  0  0  0  0  0  0  0
    0.0000    0.0000    0.0000 H   0  0  0  0  0  0  0  0  0  0  0  0
    0.0000    0.0000    0.0000 H   0  0  0  0  0  0  0  0  0  0  0  0
    0.0000    0.0000    0.0000 H   0  0  0  0  0  0  0  0  0  0  0  0
    0.0000    0.0000    0.0000 H   0  0  0  0  0  0  0  0  0  0  0  0
    0.0000    0.0000    0.0000 H   0  0  0  0  0  0  0  0  0  0  0  0
    0.0000    0.0000    0.0000 H   0  0  0  0  0  0  0  0  0  0  0  0
    0.0000    0.0000    0.0000 H   0  0  0  0  0  0  0  0  0  0  0  0
    0.0000    0.0000    0.0000 H   0  0  0  0  0  0  0  0  0  0  0  0
    0.0000    0.0000    0.0000 H   0  0  0  0  0  0  0  0  0  0  0  0
  1  2  1  0
  2  3  1  0
  3  4  1  0
  4  5  2  0
  4  6  1  0
  6  7  1  0
  7  8  1  0
  8  9  2  0
  8 10  1  0
 10 11  1  0
 11 12  1  0
  7 13  1  0
 13 14  1  0
 14 15  2  0
 14 16  1  0
 16 17  1  0
 14 18  1  0
 18 19  1  0
  1 20  1  0
  1 21  1  0
  1 22  1  0
  2 23  1  0
  2 24  1  0
  6 25  1  0
  6 26  1  0
  7 27  1  0
 11 28  1  0
 11 29  1  0
 12 30  1  0
 12 31  1  0
 12 32  1  0
 17 33  1  0
 17 34  1  0
 17 35  1  0
 19 36  1  0
 19 37  1  0
 19 38  1  0
M  END
>  <partial_charges>  (444) 
-0.100699998438
0.135399997234
-0.432999998331
0.625800013542
-0.531300008297
-0.140599995852
0.114299997687
0.126300007105
0.654200017452
-0.508199989796
-0.427899986506
0.142299994826
-0.102200001478
-0.391499996185
0.836199998856
-0.39359998703
-0.492100000381
0.121299996972
-0.492100000381
0.121299996972
0.049699999392
0.049699999392
0.049699999392
0.0531000010669
0.0531000010669
0.10869999975
0.10869999975
0.0524999983609
0.0524999983609
0.0516000017524
0.0516000017524
0.0516000017524
0.0671999976039
0.0671999976039
0.0671999976039
0.0671999976039
0.0671999976039
0.0671999976039

>  <partial_bond_orders>  (444) 
1.0
1.0
1.0
2.0
1.0
1.0
1.0
1.0
2.0
1.0
1.0
1.0
1.0
1.0
2.0
1.0
1.0
1.0
1.0
1.0
1.0
1.0
1.0
1.0
1.0
1.0
1.0
1.0
1.0
1.0
1.0
1.0
1.0
1.0
1.0
1.0
1.0

>  <atom_types>  (444) 
c3
c3
os
c
o
c3
c3
h1
c
o
os
c3
c3
ss
p5
s
os
c3
os
c3
hc
hc
hc
h1
h1
hc
hc
h1
h1
hc
hc
hc
h1
h1
h1
h1
h1
h1

>  <target>  (444) 
-8.15

>  <cal>  (444) 
-11.194

$$$$
mobley_2784376
     RDKit          3D

  9  9  0  0  0  0  0  0  0  0999 V2000
    0.5950   -0.7130    0.5570 C   0  0  0  0  0  0  0  0  0  0  0  0
    2.0780   -0.4930    0.6160 C   0  0  0  0  0  0  0  0  0  0  0  0
    1.5180   -1.6100   -0.2150 C   0  0  0  0  0  0  0  0  0  0  0  0
    0.0000    0.0000    0.0000 H   0  0  0  0  0  0  0  0  0  0  0  0
    0.0000    0.0000    0.0000 H   0  0  0  0  0  0  0  0  0  0  0  0
    0.0000    0.0000    0.0000 H   0  0  0  0  0  0  0  0  0  0  0  0
    0.0000    0.0000    0.0000 H   0  0  0  0  0  0  0  0  0  0  0  0
    0.0000    0.0000    0.0000 H   0  0  0  0  0  0  0  0  0  0  0  0
    0.0000    0.0000    0.0000 H   0  0  0  0  0  0  0  0  0  0  0  0
  1  3  1  0
  1  2  1  0
  2  3  1  0
  1  4  1  0
  1  5  1  0
  2  6  1  0
  2  7  1  0
  3  8  1  0
  3  9  1  0
M  END
>  <partial_charges>  (445) 
-0.136500000954
-0.136500000954
-0.136500000954
0.0683000013232
0.0683000013232
0.0683000013232
0.0683000013232
0.0683000013232
0.0683000013232

>  <partial_bond_orders>  (445) 
1.0
1.0
1.0
1.0
1.0
1.0
1.0
1.0
1.0

>  <atom_types>  (445) 
cx
cx
cx
hc
hc
hc
hc
hc
hc

>  <target>  (445) 
0.75

>  <cal>  (445) 
2.485

$$$$
mobley_5220185
     RDKit          3D

 16 16  0  0  0  0  0  0  0  0999 V2000
    0.7910    0.9900    1.1550 C   0  0  0  0  0  0  0  0  0  0  0  0
    0.0880    0.3940   -0.0550 C   0  0  0  0  0  0  0  0  0  0  0  0
   -0.3210   -1.0180    0.1820 C   0  0  0  0  0  0  0  0  0  0  0  0
   -1.5570   -1.3070    0.7170 C   0  0  0  0  0  0  0  0  0  0  0  0
   -1.9570   -2.5740    0.9450 N   0  0  0  0  0  0  0  0  0  0  0  0
   -1.0770   -3.5410    0.6190 C   0  0  0  0  0  0  0  0  0  0  0  0
    0.1590   -3.2520    0.0830 C   0  0  0  0  0  0  0  0  0  0  0  0
    0.5590   -1.9850   -0.1440 N   0  0  0  0  0  0  0  0  0  0  0  0
    0.0000    0.0000    0.0000 H   0  0  0  0  0  0  0  0  0  0  0  0
    0.0000    0.0000    0.0000 H   0  0  0  0  0  0  0  0  0  0  0  0
    0.0000    0.0000    0.0000 H   0  0  0  0  0  0  0  0  0  0  0  0
    0.0000    0.0000    0.0000 H   0  0  0  0  0  0  0  0  0  0  0  0
    0.0000    0.0000    0.0000 H   0  0  0  0  0  0  0  0  0  0  0  0
    0.0000    0.0000    0.0000 H   0  0  0  0  0  0  0  0  0  0  0  0
    0.0000    0.0000    0.0000 H   0  0  0  0  0  0  0  0  0  0  0  0
    0.0000    0.0000    0.0000 H   0  0  0  0  0  0  0  0  0  0  0  0
  1  2  1  0
  2  3  1  0
  3  8  2  0
  3  4  1  0
  4  5  2  0
  5  6  1  0
  6  7  2  0
  7  8  1  0
  1  9  1  0
  1 10  1  0
  1 11  1  0
  2 12  1  0
  2 13  1  0
  4 14  1  0
  6 15  1  0
  7 16  1  0
M  END
>  <partial_charges>  (446) 
-0.0909999981523
-0.130700007081
0.300799995661
0.281100004911
-0.626299977303
0.272899985313
0.286000013351
-0.633199989796
0.0406999997795
0.0406999997795
0.0406999997795
0.0588999986649
0.0588999986649
0.0340000018477
0.033100001514
0.0335000008345

>  <partial_bond_orders>  (446) 
1.0
1.0
2.0
1.0
2.0
1.0
2.0
1.0
1.0
1.0
1.0
1.0
1.0
1.0
1.0
1.0

>  <atom_types>  (446) 
c3
c3
ca
ca
nb
ca
ca
nb
hc
hc
hc
hc
hc
h4
h4
h4

>  <target>  (446) 
-5.45

>  <cal>  (446) 
-5.809

$$$$
mobley_1858644
     RDKit          3D

 19 19  0  0  0  0  0  0  0  0999 V2000
    1.8850   -1.0360   -0.1120 C   0  0  0  0  0  0  0  0  0  0  0  0
    2.9210   -1.6310    0.6080 C   0  0  0  0  0  0  0  0  0  0  0  0
    2.8780   -1.6520    2.0020 C   0  0  0  0  0  0  0  0  0  0  0  0
    1.8000   -1.0790    2.6760 C   0  0  0  0  0  0  0  0  0  0  0  0
    0.7640   -0.4840    1.9550 C   0  0  0  0  0  0  0  0  0  0  0  0
    0.8070   -0.4630    0.5610 C   0  0  0  0  0  0  0  0  0  0  0  0
    1.7550   -1.1010    4.1660 C   0  0  0  0  0  0  0  0  0  0  0  0
    1.0570   -2.3420    4.7290 C   0  0  0  0  0  0  0  0  0  0  0  0
    1.7460   -3.5110    4.3040 O   0  0  0  0  0  0  0  0  0  0  0  0
    0.0000    0.0000    0.0000 H   0  0  0  0  0  0  0  0  0  0  0  0
    0.0000    0.0000    0.0000 H   0  0  0  0  0  0  0  0  0  0  0  0
    0.0000    0.0000    0.0000 H   0  0  0  0  0  0  0  0  0  0  0  0
    0.0000    0.0000    0.0000 H   0  0  0  0  0  0  0  0  0  0  0  0
    0.0000    0.0000    0.0000 H   0  0  0  0  0  0  0  0  0  0  0  0
    0.0000    0.0000    0.0000 H   0  0  0  0  0  0  0  0  0  0  0  0
    0.0000    0.0000    0.0000 H   0  0  0  0  0  0  0  0  0  0  0  0
    0.0000    0.0000    0.0000 H   0  0  0  0  0  0  0  0  0  0  0  0
    0.0000    0.0000    0.0000 H   0  0  0  0  0  0  0  0  0  0  0  0
    0.0000    0.0000    0.0000 H   0  0  0  0  0  0  0  0  0  0  0  0
  1  6  2  0
  1  2  1  0
  2  3  2  0
  3  4  1  0
  4  5  2  0
  5  6  1  0
  4  7  1  0
  7  8  1  0
  8  9  1  0
  1 10  1  0
  2 11  1  0
  3 12  1  0
  5 13  1  0
  6 14  1  0
  7 15  1  0
  7 16  1  0
  8 17  1  0
  8 18  1  0
  9 19  1  0
M  END
>  <partial_charges>  (447) 
-0.131699994206
-0.131699994206
-0.118500001729
-0.0746999979019
-0.118500001729
-0.131699994206
-0.0370000004768
0.135199993849
-0.596899986267
0.128099992871
0.129199996591
0.132899999619
0.132899999619
0.129199996591
0.0548000000417
0.0548000000417
0.0222999993712
0.0222999993712
0.398799985647

>  <partial_bond_orders>  (447) 
2.0
1.0
2.0
1.0
2.0
1.0
1.0
1.0
1.0
1.0
1.0
1.0
1.0
1.0
1.0
1.0
1.0
1.0
1.0

>  <atom_types>  (447) 
ca
ca
ca
ca
ca
ca
c3
c3
oh
ha
ha
ha
ha
ha
hc
hc
h1
h1
ho

>  <target>  (447) 
-6.79

>  <cal>  (447) 
-5.28

$$$$
mobley_352111
     RDKit          3D

 20 19  0  0  0  0  0  0  0  0999 V2000
   -0.1310    1.1110   -0.1830 C   0  0  0  0  0  0  0  0  0  0  0  0
   -0.7130    1.3210   -1.5480 C   0  0  0  0  0  0  0  0  0  0  0  0
   -0.1670    1.9650   -2.4340 O   0  0  0  0  0  0  0  0  0  0  0  0
   -1.9190    0.6900   -1.6320 O   0  0  0  0  0  0  0  0  0  0  0  0
   -2.5900    0.8100   -2.8900 C   0  0  0  0  0  0  0  0  0  0  0  0
   -3.9020    0.0600   -2.8140 C   0  0  0  0  0  0  0  0  0  0  0  0
   -3.6410   -1.3090   -2.5310 O   0  0  0  0  0  0  0  0  0  0  0  0
   -4.7410   -2.1160   -2.4330 C   0  0  0  0  0  0  0  0  0  0  0  0
   -5.9050   -1.7660   -2.5650 O   0  0  0  0  0  0  0  0  0  0  0  0
   -4.3160   -3.5220   -2.1340 C   0  0  0  0  0  0  0  0  0  0  0  0
    0.0000    0.0000    0.0000 H   0  0  0  0  0  0  0  0  0  0  0  0
    0.0000    0.0000    0.0000 H   0  0  0  0  0  0  0  0  0  0  0  0
    0.0000    0.0000    0.0000 H   0  0  0  0  0  0  0  0  0  0  0  0
    0.0000    0.0000    0.0000 H   0  0  0  0  0  0  0  0  0  0  0  0
    0.0000    0.0000    0.0000 H   0  0  0  0  0  0  0  0  0  0  0  0
    0.0000    0.0000    0.0000 H   0  0  0  0  0  0  0  0  0  0  0  0
    0.0000    0.0000    0.0000 H   0  0  0  0  0  0  0  0  0  0  0  0
    0.0000    0.0000    0.0000 H   0  0  0  0  0  0  0  0  0  0  0  0
    0.0000    0.0000    0.0000 H   0  0  0  0  0  0  0  0  0  0  0  0
    0.0000    0.0000    0.0000 H   0  0  0  0  0  0  0  0  0  0  0  0
  1  2  1  0
  2  3  2  0
  2  4  1  0
  4  5  1  0
  5  6  1  0
  6  7  1  0
  7  8  1  0
  8  9  2  0
  8 10  1  0
  1 11  1  0
  1 12  1  0
  1 13  1  0
  5 14  1  0
  5 15  1  0
  6 16  1  0
  6 17  1  0
 10 18  1  0
 10 19  1  0
 10 20  1  0
M  END
>  <partial_charges>  (448) 
-0.149100005627
0.637000024319
-0.534699976444
-0.450500011444
0.136999994516
0.136999994516
-0.450500011444
0.637000024319
-0.534699976444
-0.149000003934
0.0777999982238
0.0777999982238
0.0777999982238
0.0635000020266
0.0635000020266
0.0635000020266
0.0635000020266
0.0777999982238
0.0777999982238
0.0777999982238

>  <partial_bond_orders>  (448) 
1.0
2.0
1.0
1.0
1.0
1.0
1.0
2.0
1.0
1.0
1.0
1.0
1.0
1.0
1.0
1.0
1.0
1.0
1.0

>  <atom_types>  (448) 
c3
c
o
os
c3
c3
os
c
o
c3
hc
hc
hc
h1
h1
h1
h1
hc
hc
hc

>  <target>  (448) 
-6.79

>  <cal>  (448) 
-5.28

$$$$
mobley_9897248
     RDKit          3D

 29 28  0  0  0  0  0  0  0  0999 V2000
   -6.1490   -0.6680    5.1830 C   0  0  0  0  0  0  0  0  0  0  0  0
   -5.0690   -1.0550    4.2070 C   0  0  0  0  0  0  0  0  0  0  0  0
   -4.9010   -0.3570    3.0680 C   0  0  0  0  0  0  0  0  0  0  0  0
   -3.8950   -0.5910    1.9760 C   0  0  0  0  0  0  0  0  0  0  0  0
   -2.9670    0.6120    1.7610 C   0  0  0  0  0  0  0  0  0  0  0  0
   -1.9420    0.4040    0.6650 C   0  0  0  0  0  0  0  0  0  0  0  0
   -0.7130   -0.1150    0.8500 C   0  0  0  0  0  0  0  0  0  0  0  0
   -0.0970   -0.5890    2.1280 C   0  0  0  0  0  0  0  0  0  0  0  0
    1.0760    0.1750    2.3760 O   0  0  0  0  0  0  0  0  0  0  0  0
   -2.3700    0.8590   -0.7070 C   0  0  0  0  0  0  0  0  0  0  0  0
   -4.2400   -2.2320    4.6360 C   0  0  0  0  0  0  0  0  0  0  0  0
    0.0000    0.0000    0.0000 H   0  0  0  0  0  0  0  0  0  0  0  0
    0.0000    0.0000    0.0000 H   0  0  0  0  0  0  0  0  0  0  0  0
    0.0000    0.0000    0.0000 H   0  0  0  0  0  0  0  0  0  0  0  0
    0.0000    0.0000    0.0000 H   0  0  0  0  0  0  0  0  0  0  0  0
    0.0000    0.0000    0.0000 H   0  0  0  0  0  0  0  0  0  0  0  0
    0.0000    0.0000    0.0000 H   0  0  0  0  0  0  0  0  0  0  0  0
    0.0000    0.0000    0.0000 H   0  0  0  0  0  0  0  0  0  0  0  0
    0.0000    0.0000    0.0000 H   0  0  0  0  0  0  0  0  0  0  0  0
    0.0000    0.0000    0.0000 H   0  0  0  0  0  0  0  0  0  0  0  0
    0.0000    0.0000    0.0000 H   0  0  0  0  0  0  0  0  0  0  0  0
    0.0000    0.0000    0.0000 H   0  0  0  0  0  0  0  0  0  0  0  0
    0.0000    0.0000    0.0000 H   0  0  0  0  0  0  0  0  0  0  0  0
    0.0000    0.0000    0.0000 H   0  0  0  0  0  0  0  0  0  0  0  0
    0.0000    0.0000    0.0000 H   0  0  0  0  0  0  0  0  0  0  0  0
    0.0000    0.0000    0.0000 H   0  0  0  0  0  0  0  0  0  0  0  0
    0.0000    0.0000    0.0000 H   0  0  0  0  0  0  0  0  0  0  0  0
    0.0000    0.0000    0.0000 H   0  0  0  0  0  0  0  0  0  0  0  0
    0.0000    0.0000    0.0000 H   0  0  0  0  0  0  0  0  0  0  0  0
  1  2  1  0
  2  3  2  0
  3  4  1  0
  4  5  1  0
  5  6  1  0
  6  7  2  0
  7  8  1  0
  8  9  1  0
  6 10  1  0
  2 11  1  0
  1 12  1  0
  1 13  1  0
  1 14  1  0
  3 15  1  0
  4 16  1  0
  4 17  1  0
  5 18  1  0
  5 19  1  0
  7 20  1  0
  8 21  1  0
  8 22  1  0
  9 23  1  0
 10 24  1  0
 10 25  1  0
 10 26  1  0
 11 27  1  0
 11 28  1  0
 11 29  1  0
M  END
>  <partial_charges>  (449) 
-0.0610000006855
-0.111500002444
-0.177799999714
-0.041700001806
-0.0452000014484
-0.0958999991417
-0.174500003457
0.163599997759
-0.597199976444
-0.0650999993086
-0.0610000006855
0.0408000014722
0.0408000014722
0.0408000014722
0.11779999733
0.0476000010967
0.0476000010967
0.0494000017643
0.0494000017643
0.133100003004
0.0262000001967
0.0262000001967
0.397199988365
0.0428000018001
0.0428000018001
0.0428000018001
0.0408000014722
0.0408000014722
0.0408000014722

>  <partial_bond_orders>  (449) 
1.0
2.0
1.0
1.0
1.0
2.0
1.0
1.0
1.0
1.0
1.0
1.0
1.0
1.0
1.0
1.0
1.0
1.0
1.0
1.0
1.0
1.0
1.0
1.0
1.0
1.0
1.0
1.0

>  <atom_types>  (449) 
c3
c2
c2
c3
c3
c2
c2
c3
oh
c3
c3
hc
hc
hc
ha
hc
hc
hc
hc
ha
h1
h1
ho
hc
hc
hc
hc
hc
hc

>  <target>  (449) 
-4.78

>  <cal>  (449) 
-2.597

$$$$
mobley_7573149
     RDKit          3D

 17 16  0  0  0  0  0  0  0  0999 V2000
   -0.0020   -0.6660    0.8690 C   0  0  0  0  0  0  0  0  0  0  0  0
    1.2440   -0.4430    1.7060 C   0  0  0  0  0  0  0  0  0  0  0  0
    1.2750   -1.3490    2.9270 C   0  0  0  0  0  0  0  0  0  0  0  0
    2.4630   -1.0900    3.6620 O   0  0  0  0  0  0  0  0  0  0  0  0
    2.6360   -1.8330    4.7980 C   0  0  0  0  0  0  0  0  0  0  0  0
    1.8680   -2.6850    5.2240 O   0  0  0  0  0  0  0  0  0  0  0  0
    3.9230   -1.4540    5.4650 C   0  0  0  0  0  0  0  0  0  0  0  0
    0.0000    0.0000    0.0000 H   0  0  0  0  0  0  0  0  0  0  0  0
    0.0000    0.0000    0.0000 H   0  0  0  0  0  0  0  0  0  0  0  0
    0.0000    0.0000    0.0000 H   0  0  0  0  0  0  0  0  0  0  0  0
    0.0000    0.0000    0.0000 H   0  0  0  0  0  0  0  0  0  0  0  0
    0.0000    0.0000    0.0000 H   0  0  0  0  0  0  0  0  0  0  0  0
    0.0000    0.0000    0.0000 H   0  0  0  0  0  0  0  0  0  0  0  0
    0.0000    0.0000    0.0000 H   0  0  0  0  0  0  0  0  0  0  0  0
    0.0000    0.0000    0.0000 H   0  0  0  0  0  0  0  0  0  0  0  0
    0.0000    0.0000    0.0000 H   0  0  0  0  0  0  0  0  0  0  0  0
    0.0000    0.0000    0.0000 H   0  0  0  0  0  0  0  0  0  0  0  0
  1  2  1  0
  2  3  1  0
  3  4  1  0
  4  5  1  0
  5  6  2  0
  5  7  1  0
  1  8  1  0
  1  9  1  0
  1 10  1  0
  2 11  1  0
  2 12  1  0
  3 13  1  0
  3 14  1  0
  7 15  1  0
  7 16  1  0
  7 17  1  0
M  END
>  <partial_charges>  (450) 
-0.0952999964356
-0.10379999876
0.135399997234
-0.443100005388
0.63480001688
-0.544700026512
-0.15150000155
0.0394000001252
0.0394000001252
0.0394000001252
0.0485000014305
0.0485000014305
0.0640000030398
0.0640000030398
0.0750000029802
0.0750000029802
0.0750000029802

>  <partial_bond_orders>  (450) 
1.0
1.0
1.0
1.0
2.0
1.0
1.0
1.0
1.0
1.0
1.0
1.0
1.0
1.0
1.0
1.0

>  <atom_types>  (450) 
c3
c3
c3
os
c
o
c3
hc
hc
hc
hc
hc
h1
h1
hc
hc
hc

>  <target>  (450) 
-2.79

>  <cal>  (450) 
-3.486

$$$$
mobley_4193752
     RDKit          3D

 14 14  0  0  0  0  0  0  0  0999 V2000
    1.8850   -1.0360   -0.1120 C   0  0  0  0  0  0  0  0  0  0  0  0
    2.9210   -1.6310    0.6080 C   0  0  0  0  0  0  0  0  0  0  0  0
    2.8780   -1.6520    2.0020 C   0  0  0  0  0  0  0  0  0  0  0  0
    1.8000   -1.0790    2.6760 C   0  0  0  0  0  0  0  0  0  0  0  0
    0.7640   -0.4840    1.9550 C   0  0  0  0  0  0  0  0  0  0  0  0
    0.8070   -0.4630    0.5610 C   0  0  0  0  0  0  0  0  0  0  0  0
    1.7560   -1.1000    4.0950 N   0  0  0  0  0  0  0  0  0  0  0  0
    0.7760   -0.5790    4.6810 O   0  0  0  0  0  0  0  0  0  0  0  0
    2.6980   -1.6400    4.7240 O   0  0  0  0  0  0  0  0  0  0  0  0
    0.0000    0.0000    0.0000 H   0  0  0  0  0  0  0  0  0  0  0  0
    0.0000    0.0000    0.0000 H   0  0  0  0  0  0  0  0  0  0  0  0
    0.0000    0.0000    0.0000 H   0  0  0  0  0  0  0  0  0  0  0  0
    0.0000    0.0000    0.0000 H   0  0  0  0  0  0  0  0  0  0  0  0
    0.0000    0.0000    0.0000 H   0  0  0  0  0  0  0  0  0  0  0  0
  1  6  2  0
  1  2  1  0
  2  3  2  0
  3  4  1  0
  4  5  2  0
  5  6  1  0
  4  7  1  0
  7  8  1  0
  7  9  1  0
  1 10  1  0
  2 11  1  0
  3 12  1  0
  5 13  1  0
  6 14  1  0
M  CHG  2   8  -1   9  -1
M  END
>  <partial_charges>  (451) 
-0.0883999988437
-0.139599993825
-0.0675000026822
-0.176200002432
-0.0675000026822
-0.139599993825
0.312400013208
-0.208800002933
-0.208800002933
0.143999993801
0.148399993777
0.171499997377
0.171499997377
0.148399993777

>  <partial_bond_orders>  (451) 
2.0
1.0
2.0
1.0
2.0
1.0
1.0
1.0
1.0
1.0
1.0
1.0
1.0
1.0

>  <atom_types>  (451) 
ca
ca
ca
ca
ca
ca
no
o
o
ha
ha
ha
ha
ha

>  <target>  (451) 
-4.12

>  <cal>  (451) 
-3.46

$$$$
mobley_3515580
     RDKit          3D

 17 17  0  0  0  0  0  0  0  0999 V2000
    3.0740   -1.6290   -2.0770 C   0  0  0  0  0  0  0  0  0  0  0  0
    1.9380   -1.0220   -1.4740 O   0  0  0  0  0  0  0  0  0  0  0  0
    1.8850   -1.0360   -0.1120 C   0  0  0  0  0  0  0  0  0  0  0  0
    2.9210   -1.6310    0.6080 C   0  0  0  0  0  0  0  0  0  0  0  0
    2.8780   -1.6520    2.0020 C   0  0  0  0  0  0  0  0  0  0  0  0
    1.8000   -1.0790    2.6760 C   0  0  0  0  0  0  0  0  0  0  0  0
    0.7640   -0.4840    1.9550 C   0  0  0  0  0  0  0  0  0  0  0  0
    0.8070   -0.4630    0.5610 C   0  0  0  0  0  0  0  0  0  0  0  0
   -0.2120    0.1190   -0.1310 O   0  0  0  0  0  0  0  0  0  0  0  0
    0.0000    0.0000    0.0000 H   0  0  0  0  0  0  0  0  0  0  0  0
    0.0000    0.0000    0.0000 H   0  0  0  0  0  0  0  0  0  0  0  0
    0.0000    0.0000    0.0000 H   0  0  0  0  0  0  0  0  0  0  0  0
    0.0000    0.0000    0.0000 H   0  0  0  0  0  0  0  0  0  0  0  0
    0.0000    0.0000    0.0000 H   0  0  0  0  0  0  0  0  0  0  0  0
    0.0000    0.0000    0.0000 H   0  0  0  0  0  0  0  0  0  0  0  0
    0.0000    0.0000    0.0000 H   0  0  0  0  0  0  0  0  0  0  0  0
    0.0000    0.0000    0.0000 H   0  0  0  0  0  0  0  0  0  0  0  0
  1  2  1  0
  2  3  1  0
  3  8  2  0
  3  4  1  0
  4  5  2  0
  5  6  1  0
  6  7  2  0
  7  8  1  0
  8  9  1  0
  1 10  1  0
  1 11  1  0
  1 12  1  0
  4 13  1  0
  5 14  1  0
  6 15  1  0
  7 16  1  0
  9 17  1  0
M  END
>  <partial_charges>  (452) 
0.117899999022
-0.342999994755
0.0359000004828
-0.16099999845
-0.136199995875
-0.124499998987
-0.137199997902
0.112599998713
-0.496399998665
0.0454999990761
0.0454999990761
0.0454999990761
0.137400001287
0.134200006723
0.135900005698
0.151600003242
0.436100006104

>  <partial_bond_orders>  (452) 
1.0
1.0
2.0
1.0
2.0
1.0
2.0
1.0
1.0
1.0
1.0
1.0
1.0
1.0
1.0
1.0
1.0

>  <atom_types>  (452) 
c3
os
ca
ca
ca
ca
ca
ca
oh
h1
h1
h1
ha
ha
ha
ha
ho

>  <target>  (452) 
-5.94

>  <cal>  (452) 
-4.746

$$$$
mobley_6175884
     RDKit          3D

 17 17  0  0  0  0  0  0  0  0999 V2000
    1.9300   -1.0140   -1.6030 C   0  0  0  0  0  0  0  0  0  0  0  0
    1.8850   -1.0360   -0.1120 C   0  0  0  0  0  0  0  0  0  0  0  0
    2.9210   -1.6310    0.6080 C   0  0  0  0  0  0  0  0  0  0  0  0
    2.8780   -1.6520    2.0020 C   0  0  0  0  0  0  0  0  0  0  0  0
    1.8000   -1.0790    2.6760 C   0  0  0  0  0  0  0  0  0  0  0  0
    0.7640   -0.4840    1.9550 C   0  0  0  0  0  0  0  0  0  0  0  0
    0.8070   -0.4630    0.5610 C   0  0  0  0  0  0  0  0  0  0  0  0
    1.7550   -1.1010    4.1290 C   0  0  0  0  0  0  0  0  0  0  0  0
    0.8300   -0.6120    4.7830 O   0  0  0  0  0  0  0  0  0  0  0  0
    0.0000    0.0000    0.0000 H   0  0  0  0  0  0  0  0  0  0  0  0
    0.0000    0.0000    0.0000 H   0  0  0  0  0  0  0  0  0  0  0  0
    0.0000    0.0000    0.0000 H   0  0  0  0  0  0  0  0  0  0  0  0
    0.0000    0.0000    0.0000 H   0  0  0  0  0  0  0  0  0  0  0  0
    0.0000    0.0000    0.0000 H   0  0  0  0  0  0  0  0  0  0  0  0
    0.0000    0.0000    0.0000 H   0  0  0  0  0  0  0  0  0  0  0  0
    0.0000    0.0000    0.0000 H   0  0  0  0  0  0  0  0  0  0  0  0
    0.0000    0.0000    0.0000 H   0  0  0  0  0  0  0  0  0  0  0  0
  1  2  1  0
  2  7  2  0
  2  3  1  0
  3  4  2  0
  4  5  1  0
  5  6  2  0
  6  7  1  0
  5  8  1  0
  8  9  2  0
  1 10  1  0
  1 11  1  0
  1 12  1  0
  3 13  1  0
  4 14  1  0
  6 15  1  0
  7 16  1  0
  8 17  1  0
M  END
>  <partial_charges>  (453) 
-0.0619000010192
-0.042199999094
-0.148000001907
-0.0734999999404
-0.203899994493
-0.0734999999404
-0.148000001907
0.576200008392
-0.531300008297
0.0493000000715
0.0493000000715
0.0493000000715
0.136899992824
0.143999993801
0.143999993801
0.136899992824
-0.00340000004508

>  <partial_bond_orders>  (453) 
1.0
2.0
1.0
2.0
1.0
2.0
1.0
1.0
2.0
1.0
1.0
1.0
1.0
1.0
1.0
1.0
1.0

>  <atom_types>  (453) 
c3
ca
ca
ca
ca
ca
ca
c
o
hc
hc
hc
ha
ha
ha
ha
h4

>  <target>  (453) 
-4.27

>  <cal>  (453) 
-5.014

$$$$
mobley_8885088
     RDKit          3D

 13 13  0  0  0  0  0  0  0  0999 V2000
    0.0160    1.1410   -0.5490 C   0  0  0  0  0  0  0  0  0  0  0  0
    1.2280    0.3700   -0.0270 C   0  0  0  0  0  0  0  0  0  0  0  0
    0.6550   -0.9670    0.3000 C   0  0  0  0  0  0  0  0  0  0  0  0
   -0.6810   -0.9490    0.3010 C   0  0  0  0  0  0  0  0  0  0  0  0
   -1.2170    0.4050   -0.0250 C   0  0  0  0  0  0  0  0  0  0  0  0
    0.0000    0.0000    0.0000 H   0  0  0  0  0  0  0  0  0  0  0  0
    0.0000    0.0000    0.0000 H   0  0  0  0  0  0  0  0  0  0  0  0
    0.0000    0.0000    0.0000 H   0  0  0  0  0  0  0  0  0  0  0  0
    0.0000    0.0000    0.0000 H   0  0  0  0  0  0  0  0  0  0  0  0
    0.0000    0.0000    0.0000 H   0  0  0  0  0  0  0  0  0  0  0  0
    0.0000    0.0000    0.0000 H   0  0  0  0  0  0  0  0  0  0  0  0
    0.0000    0.0000    0.0000 H   0  0  0  0  0  0  0  0  0  0  0  0
    0.0000    0.0000    0.0000 H   0  0  0  0  0  0  0  0  0  0  0  0
  1  5  1  0
  1  2  1  0
  2  3  1  0
  3  4  2  0
  4  5  1  0
  1  6  1  0
  1  7  1  0
  2  8  1  0
  2  9  1  0
  3 10  1  0
  4 11  1  0
  5 12  1  0
  5 13  1  0
M  END
>  <partial_charges>  (454) 
-0.0833000019193
-0.0575999990106
-0.17689999938
-0.17689999938
-0.0575999990106
0.0427000001073
0.0427000001073
0.0491000004113
0.0491000004113
0.135299995542
0.135299995542
0.0491000004113
0.0491000004113

>  <partial_bond_orders>  (454) 
1.0
1.0
1.0
2.0
1.0
1.0
1.0
1.0
1.0
1.0
1.0
1.0
1.0

>  <atom_types>  (454) 
c3
c3
c2
c2
c3
hc
hc
hc
hc
ha
ha
hc
hc

>  <target>  (454) 
0.56

>  <cal>  (454) 
1.23

$$$$
mobley_3715043
     RDKit          3D

 24 25  0  0  0  0  0  0  0  0999 V2000
   -1.0090   -4.3880    1.0440 C   0  0  0  0  0  0  0  0  0  0  0  0
   -0.0480   -3.3540    0.5450 C   0  0  0  0  0  0  0  0  0  0  0  0
   -0.4970   -2.0340    0.4940 C   0  0  0  0  0  0  0  0  0  0  0  0
    0.3500   -1.0280    0.0390 C   0  0  0  0  0  0  0  0  0  0  0  0
    1.6480   -1.3370   -0.3660 C   0  0  0  0  0  0  0  0  0  0  0  0
    2.1170   -2.6600   -0.3220 C   0  0  0  0  0  0  0  0  0  0  0  0
    1.2560   -3.6840    0.1400 C   0  0  0  0  0  0  0  0  0  0  0  0
    1.7240   -5.0070    0.1850 C   0  0  0  0  0  0  0  0  0  0  0  0
    3.0230   -5.3170   -0.2210 C   0  0  0  0  0  0  0  0  0  0  0  0
    3.8690   -4.3100   -0.6760 C   0  0  0  0  0  0  0  0  0  0  0  0
    3.4210   -2.9900   -0.7270 C   0  0  0  0  0  0  0  0  0  0  0  0
    2.5060   -0.2060   -0.8450 C   0  0  0  0  0  0  0  0  0  0  0  0
    0.0000    0.0000    0.0000 H   0  0  0  0  0  0  0  0  0  0  0  0
    0.0000    0.0000    0.0000 H   0  0  0  0  0  0  0  0  0  0  0  0
    0.0000    0.0000    0.0000 H   0  0  0  0  0  0  0  0  0  0  0  0
    0.0000    0.0000    0.0000 H   0  0  0  0  0  0  0  0  0  0  0  0
    0.0000    0.0000    0.0000 H   0  0  0  0  0  0  0  0  0  0  0  0
    0.0000    0.0000    0.0000 H   0  0  0  0  0  0  0  0  0  0  0  0
    0.0000    0.0000    0.0000 H   0  0  0  0  0  0  0  0  0  0  0  0
    0.0000    0.0000    0.0000 H   0  0  0  0  0  0  0  0  0  0  0  0
    0.0000    0.0000    0.0000 H   0  0  0  0  0  0  0  0  0  0  0  0
    0.0000    0.0000    0.0000 H   0  0  0  0  0  0  0  0  0  0  0  0
    0.0000    0.0000    0.0000 H   0  0  0  0  0  0  0  0  0  0  0  0
    0.0000    0.0000    0.0000 H   0  0  0  0  0  0  0  0  0  0  0  0
  1  2  1  0
  2  7  2  0
  2  3  1  0
  3  4  2  0
  4  5  1  0
  5  6  2  0
  6 11  1  0
  6  7  1  0
  7  8  1  0
  8  9  2  0
  9 10  1  0
 10 11  2  0
  5 12  1  0
  1 13  1  0
  1 14  1  0
  1 15  1  0
  3 16  1  0
  4 17  1  0
  8 18  1  0
  9 19  1  0
 10 20  1  0
 11 21  1  0
 12 22  1  0
 12 23  1  0
 12 24  1  0
M  END
>  <partial_charges>  (455) 
-0.0553999990225
-0.068400003016
-0.128900006413
-0.128900006413
-0.068400003016
-0.0270000007004
-0.0270000007004
-0.11930000037
-0.129399999976
-0.129399999976
-0.11930000037
-0.055300001055
0.0447000004351
0.0447000004351
0.0447000004351
0.130899995565
0.130899995565
0.132699996233
0.130799993873
0.130799993873
0.132699996233
0.0447000004351
0.0447000004351
0.0447000004351

>  <partial_bond_orders>  (455) 
1.0
2.0
1.0
2.0
1.0
2.0
1.0
1.0
1.0
2.0
1.0
2.0
1.0
1.0
1.0
1.0
1.0
1.0
1.0
1.0
1.0
1.0
1.0
1.0
1.0

>  <atom_types>  (455) 
c3
ca
ca
ca
ca
ca
ca
ca
ca
ca
ca
c3
hc
hc
hc
ha
ha
ha
ha
ha
ha
hc
hc
hc

>  <target>  (455) 
-2.82

>  <cal>  (455) 
-3.081

$$$$
mobley_2958326
     RDKit          3D

 22 21  0  0  0  0  0  0  0  0999 V2000
    1.1130    2.1050    0.4930 C   0  0  0  0  0  0  0  0  0  0  0  0
    1.3140    1.3530   -0.8150 C   0  0  0  0  0  0  0  0  0  0  0  0
    2.6190    1.7220   -1.5110 C   0  0  0  0  0  0  0  0  0  0  0  0
    2.8010    1.0090   -2.7450 N   0  0  0  0  0  0  0  0  0  0  0  0
    4.0580    1.3750   -3.4000 C   0  0  0  0  0  0  0  0  0  0  0  0
    4.2450    0.6200   -4.6990 C   0  0  0  0  0  0  0  0  0  0  0  0
    5.5430    0.9720   -5.4130 C   0  0  0  0  0  0  0  0  0  0  0  0
    0.0000    0.0000    0.0000 H   0  0  0  0  0  0  0  0  0  0  0  0
    0.0000    0.0000    0.0000 H   0  0  0  0  0  0  0  0  0  0  0  0
    0.0000    0.0000    0.0000 H   0  0  0  0  0  0  0  0  0  0  0  0
    0.0000    0.0000    0.0000 H   0  0  0  0  0  0  0  0  0  0  0  0
    0.0000    0.0000    0.0000 H   0  0  0  0  0  0  0  0  0  0  0  0
    0.0000    0.0000    0.0000 H   0  0  0  0  0  0  0  0  0  0  0  0
    0.0000    0.0000    0.0000 H   0  0  0  0  0  0  0  0  0  0  0  0
    0.0000    0.0000    0.0000 H   0  0  0  0  0  0  0  0  0  0  0  0
    0.0000    0.0000    0.0000 H   0  0  0  0  0  0  0  0  0  0  0  0
    0.0000    0.0000    0.0000 H   0  0  0  0  0  0  0  0  0  0  0  0
    0.0000    0.0000    0.0000 H   0  0  0  0  0  0  0  0  0  0  0  0
    0.0000    0.0000    0.0000 H   0  0  0  0  0  0  0  0  0  0  0  0
    0.0000    0.0000    0.0000 H   0  0  0  0  0  0  0  0  0  0  0  0
    0.0000    0.0000    0.0000 H   0  0  0  0  0  0  0  0  0  0  0  0
    0.0000    0.0000    0.0000 H   0  0  0  0  0  0  0  0  0  0  0  0
  1  2  1  0
  2  3  1  0
  3  4  1  0
  4  5  1  0
  5  6  1  0
  6  7  1  0
  1  8  1  0
  1  9  1  0
  1 10  1  0
  2 11  1  0
  2 12  1  0
  3 13  1  0
  3 14  1  0
  4 15  1  0
  5 16  1  0
  5 17  1  0
  6 18  1  0
  6 19  1  0
  7 20  1  0
  7 21  1  0
  7 22  1  0
M  END
>  <partial_charges>  (456) 
-0.0925000011921
-0.0837000012398
0.169100001454
-0.830200016499
0.169100001454
-0.0837000012398
-0.0925000011921
0.0340000018477
0.0340000018477
0.0340000018477
0.0450000017881
0.0450000017881
0.0261000003666
0.0261000003666
0.356000006199
0.0261000003666
0.0261000003666
0.0450000017881
0.0450000017881
0.0340000018477
0.0340000018477
0.0340000018477

>  <partial_bond_orders>  (456) 
1.0
1.0
1.0
1.0
1.0
1.0
1.0
1.0
1.0
1.0
1.0
1.0
1.0
1.0
1.0
1.0
1.0
1.0
1.0
1.0
1.0

>  <atom_types>  (456) 
c3
c3
c3
n3
c3
c3
c3
hc
hc
hc
hc
hc
h1
h1
hn
h1
h1
hc
hc
hc
hc
hc

>  <target>  (456) 
-3.65

>  <cal>  (456) 
-2.233

$$$$
mobley_2123854
     RDKit          3D

 14 14  0  0  0  0  0  0  0  0999 V2000
    1.8850   -1.0360   -0.1120 C   0  0  0  0  0  0  0  0  0  0  0  0
    2.9210   -1.6310    0.6080 C   0  0  0  0  0  0  0  0  0  0  0  0
    2.8780   -1.6520    2.0020 C   0  0  0  0  0  0  0  0  0  0  0  0
    1.8000   -1.0790    2.6760 C   0  0  0  0  0  0  0  0  0  0  0  0
    0.7640   -0.4840    1.9550 C   0  0  0  0  0  0  0  0  0  0  0  0
    0.8070   -0.4630    0.5610 C   0  0  0  0  0  0  0  0  0  0  0  0
   -0.2550    0.1460   -0.1770 C   0  0  0  0  0  0  0  0  0  0  0  0
   -1.1180    0.6410   -0.7770 N   0  0  0  0  0  0  0  0  0  0  0  0
    3.8890   -2.2320    2.7050 O   0  0  0  0  0  0  0  0  0  0  0  0
    0.0000    0.0000    0.0000 H   0  0  0  0  0  0  0  0  0  0  0  0
    0.0000    0.0000    0.0000 H   0  0  0  0  0  0  0  0  0  0  0  0
    0.0000    0.0000    0.0000 H   0  0  0  0  0  0  0  0  0  0  0  0
    0.0000    0.0000    0.0000 H   0  0  0  0  0  0  0  0  0  0  0  0
    0.0000    0.0000    0.0000 H   0  0  0  0  0  0  0  0  0  0  0  0
  1  6  2  0
  1  2  1  0
  2  3  2  0
  3  4  1  0
  4  5  2  0
  5  6  1  0
  6  7  1  0
  7  8  3  0
  3  9  1  0
  1 10  1  0
  2 11  1  0
  4 12  1  0
  5 13  1  0
  9 14  1  0
M  END
>  <partial_charges>  (457) 
-0.0529999993742
-0.192499995232
0.149100005627
-0.192499995232
-0.0529999993742
-0.0584999993443
0.237299993634
-0.368099987507
-0.490700006485
0.148000001907
0.150299996138
0.150299996138
0.148000001907
0.425099998713

>  <partial_bond_orders>  (457) 
2.0
1.0
2.0
1.0
2.0
1.0
1.0
3.0
1.0
1.0
1.0
1.0
1.0
1.0

>  <atom_types>  (457) 
ca
ca
ca
ca
ca
ca
cg
n1
oh
ha
ha
ha
ha
ho

>  <target>  (457) 
-10.17

>  <cal>  (457) 
-8.39

$$$$
mobley_296847
     RDKit          3D

 11 11  0  0  0  0  0  0  0  0999 V2000
    1.3880   -0.0680    1.6520 C   0  0  0  0  0  0  0  0  0  0  0  0
    0.2270   -0.4200    0.9730 C   0  0  0  0  0  0  0  0  0  0  0  0
   -0.6320   -1.3220    1.5800 C   0  0  0  0  0  0  0  0  0  0  0  0
   -0.4090   -1.8820    2.7910 N   0  0  0  0  0  0  0  0  0  0  0  0
    0.7300   -1.5160    3.4210 C   0  0  0  0  0  0  0  0  0  0  0  0
    1.6520   -0.6230    2.9000 C   0  0  0  0  0  0  0  0  0  0  0  0
    0.0000    0.0000    0.0000 H   0  0  0  0  0  0  0  0  0  0  0  0
    0.0000    0.0000    0.0000 H   0  0  0  0  0  0  0  0  0  0  0  0
    0.0000    0.0000    0.0000 H   0  0  0  0  0  0  0  0  0  0  0  0
    0.0000    0.0000    0.0000 H   0  0  0  0  0  0  0  0  0  0  0  0
    0.0000    0.0000    0.0000 H   0  0  0  0  0  0  0  0  0  0  0  0
  1  6  2  0
  1  2  1  0
  2  3  2  0
  3  4  1  0
  4  5  2  0
  5  6  1  0
  1  7  1  0
  2  8  1  0
  3  9  1  0
  5 10  1  0
  6 11  1  0
M  END
>  <partial_charges>  (458) 
-0.0948000028729
-0.246000006795
0.393200010061
-0.665499985218
0.393200010061
-0.246000006795
0.135700002313
0.143700003624
0.0212999992073
0.0212999992073
0.143700003624

>  <partial_bond_orders>  (458) 
2.0
1.0
2.0
1.0
2.0
1.0
1.0
1.0
1.0
1.0
1.0

>  <atom_types>  (458) 
ca
ca
ca
nb
ca
ca
ha
ha
h4
h4
ha

>  <target>  (458) 
-4.69

>  <cal>  (458) 
-3.508

$$$$
mobley_8127829
     RDKit          3D

 18 18  0  0  0  0  0  0  0  0999 V2000
    2.6300    0.2300   -2.1290 C   0  0  0  0  0  0  0  0  0  0  0  0
    1.9310   -1.0140   -1.6030 C   0  0  0  0  0  0  0  0  0  0  0  0
    1.8850   -1.0360   -0.1120 C   0  0  0  0  0  0  0  0  0  0  0  0
    2.9210   -1.6310    0.6080 C   0  0  0  0  0  0  0  0  0  0  0  0
    2.8780   -1.6520    2.0020 C   0  0  0  0  0  0  0  0  0  0  0  0
    1.8000   -1.0790    2.6760 C   0  0  0  0  0  0  0  0  0  0  0  0
    0.7640   -0.4840    1.9550 C   0  0  0  0  0  0  0  0  0  0  0  0
    0.8070   -0.4630    0.5610 C   0  0  0  0  0  0  0  0  0  0  0  0
    0.0000    0.0000    0.0000 H   0  0  0  0  0  0  0  0  0  0  0  0
    0.0000    0.0000    0.0000 H   0  0  0  0  0  0  0  0  0  0  0  0
    0.0000    0.0000    0.0000 H   0  0  0  0  0  0  0  0  0  0  0  0
    0.0000    0.0000    0.0000 H   0  0  0  0  0  0  0  0  0  0  0  0
    0.0000    0.0000    0.0000 H   0  0  0  0  0  0  0  0  0  0  0  0
    0.0000    0.0000    0.0000 H   0  0  0  0  0  0  0  0  0  0  0  0
    0.0000    0.0000    0.0000 H   0  0  0  0  0  0  0  0  0  0  0  0
    0.0000    0.0000    0.0000 H   0  0  0  0  0  0  0  0  0  0  0  0
    0.0000    0.0000    0.0000 H   0  0  0  0  0  0  0  0  0  0  0  0
    0.0000    0.0000    0.0000 H   0  0  0  0  0  0  0  0  0  0  0  0
  1  2  1  0
  2  3  1  0
  3  8  2  0
  3  4  1  0
  4  5  2  0
  5  6  1  0
  6  7  2  0
  7  8  1  0
  1  9  1  0
  1 10  1  0
  1 11  1  0
  2 12  1  0
  2 13  1  0
  4 14  1  0
  5 15  1  0
  6 16  1  0
  7 17  1  0
  8 18  1  0
M  END
>  <partial_charges>  (459) 
-0.0888999998569
-0.0392999984324
-0.0768000036478
-0.127599999309
-0.128299996257
-0.133900001645
-0.128299996257
-0.127599999309
0.0362000018358
0.0362000018358
0.0362000018358
0.0458000004292
0.0458000004292
0.130700007081
0.129600003362
0.129999995232
0.129600003362
0.130700007081

>  <partial_bond_orders>  (459) 
1.0
1.0
2.0
1.0
2.0
1.0
2.0
1.0
1.0
1.0
1.0
1.0
1.0
1.0
1.0
1.0
1.0
1.0

>  <atom_types>  (459) 
c3
c3
ca
ca
ca
ca
ca
ca
hc
hc
hc
hc
hc
ha
ha
ha
ha
ha

>  <target>  (459) 
-0.79

>  <cal>  (459) 
-0.606

$$$$
mobley_242480
     RDKit          3D

 28 30  0  0  0  0  0  0  0  0999 V2000
    1.2900   -1.6870   -0.3520 C   0  0  0  0  0  0  0  0  0  0  0  0
    0.9560   -0.4630    0.2260 C   0  0  0  0  0  0  0  0  0  0  0  0
    1.8480    0.1680    1.0930 C   0  0  0  0  0  0  0  0  0  0  0  0
    3.0810   -0.4280    1.3840 C   0  0  0  0  0  0  0  0  0  0  0  0
    3.4160   -1.6540    0.8060 C   0  0  0  0  0  0  0  0  0  0  0  0
    2.5180   -2.2840   -0.0640 C   0  0  0  0  0  0  0  0  0  0  0  0
    4.7130   -2.2940    1.1040 C   0  0  0  0  0  0  0  0  0  0  0  0
    4.9710   -3.3690    0.5790 O   0  0  0  0  0  0  0  0  0  0  0  0
    5.6520   -1.6180    2.0240 C   0  0  0  0  0  0  0  0  0  0  0  0
    6.8850   -2.2140    2.3150 C   0  0  0  0  0  0  0  0  0  0  0  0
    7.7770   -1.5830    3.1820 C   0  0  0  0  0  0  0  0  0  0  0  0
    7.4420   -0.3590    3.7590 C   0  0  0  0  0  0  0  0  0  0  0  0
    6.2150    0.2380    3.4720 C   0  0  0  0  0  0  0  0  0  0  0  0
    5.3170   -0.3920    2.6020 C   0  0  0  0  0  0  0  0  0  0  0  0
    4.0190    0.2480    2.3040 C   0  0  0  0  0  0  0  0  0  0  0  0
    3.6910    1.3220    2.7930 O   0  0  0  0  0  0  0  0  0  0  0  0
    5.9470    1.4790    4.0940 N   0  0  0  0  0  0  0  0  0  0  0  0
    7.2940   -3.4520    1.7680 N   0  0  0  0  0  0  0  0  0  0  0  0
    0.0000    0.0000    0.0000 H   0  0  0  0  0  0  0  0  0  0  0  0
    0.0000    0.0000    0.0000 H   0  0  0  0  0  0  0  0  0  0  0  0
    0.0000    0.0000    0.0000 H   0  0  0  0  0  0  0  0  0  0  0  0
    0.0000    0.0000    0.0000 H   0  0  0  0  0  0  0  0  0  0  0  0
    0.0000    0.0000    0.0000 H   0  0  0  0  0  0  0  0  0  0  0  0
    0.0000    0.0000    0.0000 H   0  0  0  0  0  0  0  0  0  0  0  0
    0.0000    0.0000    0.0000 H   0  0  0  0  0  0  0  0  0  0  0  0
    0.0000    0.0000    0.0000 H   0  0  0  0  0  0  0  0  0  0  0  0
    0.0000    0.0000    0.0000 H   0  0  0  0  0  0  0  0  0  0  0  0
    0.0000    0.0000    0.0000 H   0  0  0  0  0  0  0  0  0  0  0  0
  1  6  2  0
  1  2  1  0
  2  3  2  0
  3  4  1  0
  4 15  1  0
  4  5  2  0
  5  6  1  0
  5  7  1  0
  7  8  2  0
  7  9  1  0
  9 14  2  0
  9 10  1  0
 10 11  2  0
 11 12  1  0
 12 13  2  0
 13 14  1  0
 14 15  1  0
 15 16  2  0
 13 17  1  0
 10 18  1  0
  1 19  1  0
  2 20  1  0
  3 21  1  0
  6 22  1  0
 11 23  1  0
 12 24  1  0
 17 25  1  0
 17 26  1  0
 18 27  1  0
 18 28  1  0
M  END
>  <partial_charges>  (460) 
-0.120399996638
-0.120200000703
-0.0878999978304
-0.125900000334
-0.125900000334
-0.0878999978304
0.600499987602
-0.573099970818
-0.176799997687
0.183200001717
-0.142100006342
-0.142100006342
0.183200001717
-0.176799997687
0.600499987602
-0.573099970818
-0.835600018501
-0.835600018501
0.139100000262
0.139100000262
0.159700006247
0.159700006247
0.137999996543
0.137999996543
0.420700013638
0.420700013638
0.420700013638
0.420700013638

>  <partial_bond_orders>  (460) 
2.0
1.0
2.0
1.0
1.0
2.0
1.0
1.0
2.0
1.0
2.0
1.0
2.0
1.0
2.0
1.0
1.0
2.0
1.0
1.0
1.0
1.0
1.0
1.0
1.0
1.0
1.0
1.0
1.0
1.0

>  <atom_types>  (460) 
ca
ca
ca
ca
ca
ca
c
o
ca
ca
ca
ca
ca
ca
c
o
nh
nh
ha
ha
ha
ha
ha
ha
hn
hn
hn
hn

>  <target>  (460) 
-11.85

>  <cal>  (460) 
-15.252

$$$$
mobley_8117218
     RDKit          3D

 27 31  0  0  1  0  0  0  0  0999 V2000
    1.5570   -1.8690   -0.7360 C   0  0  0  0  0  0  0  0  0  0  0  0
    0.0460   -2.1130   -0.8040 C   0  0  0  0  0  0  0  0  0  0  0  0
   -0.6090   -0.8280   -0.2180 C   0  0  0  0  0  0  0  0  0  0  0  0
    0.4460   -0.3810    0.8730 C   0  0  0  0  0  0  0  0  0  0  0  0
    1.5400   -1.4810    0.7460 C   0  0  0  0  0  0  0  0  0  0  0  0
    0.8890   -2.7420    1.3540 C   0  0  0  0  0  0  0  0  0  0  0  0
   -0.1140   -3.1670    0.3140 C   0  0  0  0  0  0  0  0  0  0  0  0
    1.0120   -3.9830    0.6520 O   0  0  0  0  0  0  0  0  0  0  0  0
    0.5890    1.1540    0.5860 C   0  0  0  0  0  0  0  0  0  0  0  0
   -0.7780    1.6800    1.0410 C   0  0  0  0  0  0  0  0  0  0  0  0
   -1.6760    1.3000    0.1160 C   0  0  0  0  0  0  0  0  0  0  0  0
   -0.9120    0.5200   -0.9600 C   0  0  0  0  0  0  0  0  0  0  0  0
    0.3730    1.4000   -0.9380 C   0  0  0  0  0  0  0  0  0  0  0  0
    1.7390    0.7340   -1.9900 Cl  0  0  0  0  0  0  0  0  0  0  0  0
    0.2790    3.0610   -1.5300 Cl  0  0  0  0  0  0  0  0  0  0  0  0
   -1.6960    0.3510   -2.5090 Cl  0  0  0  0  0  0  0  0  0  0  0  0
   -3.3510    1.5400    0.1190 Cl  0  0  0  0  0  0  0  0  0  0  0  0
   -1.0510    2.5130    2.4890 Cl  0  0  0  0  0  0  0  0  0  0  0  0
    1.9930    1.9110    1.2920 Cl  0  0  0  0  0  0  0  0  0  0  0  0
    0.0000    0.0000    0.0000 H   0  0  0  0  0  0  0  0  0  0  0  0
    0.0000    0.0000    0.0000 H   0  0  0  0  0  0  0  0  0  0  0  0
    0.0000    0.0000    0.0000 H   0  0  0  0  0  0  0  0  0  0  0  0
    0.0000    0.0000    0.0000 H   0  0  0  0  0  0  0  0  0  0  0  0
    0.0000    0.0000    0.0000 H   0  0  0  0  0  0  0  0  0  0  0  0
    0.0000    0.0000    0.0000 H   0  0  0  0  0  0  0  0  0  0  0  0
    0.0000    0.0000    0.0000 H   0  0  0  0  0  0  0  0  0  0  0  0
    0.0000    0.0000    0.0000 H   0  0  0  0  0  0  0  0  0  0  0  0
  1  5  1  0
  1  2  1  0
  2  7  1  0
  2  3  1  0
  3 12  1  0
  3  4  1  0
  4  5  1  0
  5  6  1  0
  6  8  1  0
  6  7  1  0
  7  8  1  0
  4  9  1  0
  9 13  1  0
  9 10  1  0
 10 11  2  0
 11 12  1  0
 12 13  1  0
 13 14  1  0
 13 15  1  0
 12 16  1  0
 11 17  1  0
 10 18  1  0
  9 19  1  0
  1 20  1  0
  1 21  1  0
  2 22  1  0
  3 23  1  0
  4 24  1  0
  5 25  1  0
  6 26  1  0
  7 27  1  0
M  END
>  <partial_charges>  (461) 
-0.111299999058
-0.0487000010908
0.0966000035405
-0.0712999999523
0.0772000029683
-0.0712999999523
0.0772000029683
-0.0487000010908
0.0966000035405
0.042199999094
0.114299997687
0.042199999094
0.114299997687
-0.377200007439
0.0916000008583
-0.0416000001132
-0.0416000001132
0.0916000008583
0.144800007343
-0.0939000025392
-0.0939000025392
-0.0731000006199
-0.0038999998942
-0.0038999998942
-0.0731000006199
0.0825000032783
0.0825000032783

>  <partial_bond_orders>  (461) 
1.0
1.0
1.0
1.0
1.0
1.0
1.0
1.0
1.0
1.0
1.0
1.0
1.0
1.0
1.0
1.0
1.0
1.0
1.0
1.0
2.0
1.0
1.0
1.0
1.0
1.0
1.0
1.0
1.0
1.0
1.0

>  <atom_types>  (461) 
c3
c3
hc
c3
hc
c3
hc
c3
hc
cx
h1
cx
h1
os
c3
c2
c2
c3
c3
cl
cl
cl
cl
cl
cl
hc
hc

>  <target>  (461) 
-4.82

>  <cal>  (461) 
-5.179

$$$$
mobley_3318135
     RDKit          3D

 28 27  0  0  0  0  0  0  0  0999 V2000
   -0.2390   -5.0620    0.4270 C   0  0  0  0  0  0  0  0  0  0  0  0
   -0.4080   -3.9260   -0.5710 C   0  0  0  0  0  0  0  0  0  0  0  0
   -0.1580   -2.5660    0.0850 C   0  0  0  0  0  0  0  0  0  0  0  0
   -0.3220   -1.4070   -0.8980 C   0  0  0  0  0  0  0  0  0  0  0  0
   -0.0800   -0.0370   -0.2820 C   0  0  0  0  0  0  0  0  0  0  0  0
    0.2200    0.1070    0.9020 O   0  0  0  0  0  0  0  0  0  0  0  0
   -0.2370    1.1430   -1.2310 C   0  0  0  0  0  0  0  0  0  0  0  0
    0.0130    2.5010   -0.5770 C   0  0  0  0  0  0  0  0  0  0  0  0
   -0.1530    3.6620   -1.5610 C   0  0  0  0  0  0  0  0  0  0  0  0
    0.1010    5.0010   -0.8870 C   0  0  0  0  0  0  0  0  0  0  0  0
    0.0000    0.0000    0.0000 H   0  0  0  0  0  0  0  0  0  0  0  0
    0.0000    0.0000    0.0000 H   0  0  0  0  0  0  0  0  0  0  0  0
    0.0000    0.0000    0.0000 H   0  0  0  0  0  0  0  0  0  0  0  0
    0.0000    0.0000    0.0000 H   0  0  0  0  0  0  0  0  0  0  0  0
    0.0000    0.0000    0.0000 H   0  0  0  0  0  0  0  0  0  0  0  0
    0.0000    0.0000    0.0000 H   0  0  0  0  0  0  0  0  0  0  0  0
    0.0000    0.0000    0.0000 H   0  0  0  0  0  0  0  0  0  0  0  0
    0.0000    0.0000    0.0000 H   0  0  0  0  0  0  0  0  0  0  0  0
    0.0000    0.0000    0.0000 H   0  0  0  0  0  0  0  0  0  0  0  0
    0.0000    0.0000    0.0000 H   0  0  0  0  0  0  0  0  0  0  0  0
    0.0000    0.0000    0.0000 H   0  0  0  0  0  0  0  0  0  0  0  0
    0.0000    0.0000    0.0000 H   0  0  0  0  0  0  0  0  0  0  0  0
    0.0000    0.0000    0.0000 H   0  0  0  0  0  0  0  0  0  0  0  0
    0.0000    0.0000    0.0000 H   0  0  0  0  0  0  0  0  0  0  0  0
    0.0000    0.0000    0.0000 H   0  0  0  0  0  0  0  0  0  0  0  0
    0.0000    0.0000    0.0000 H   0  0  0  0  0  0  0  0  0  0  0  0
    0.0000    0.0000    0.0000 H   0  0  0  0  0  0  0  0  0  0  0  0
    0.0000    0.0000    0.0000 H   0  0  0  0  0  0  0  0  0  0  0  0
  1  2  1  0
  2  3  1  0
  3  4  1  0
  4  5  1  0
  5  6  2  0
  5  7  1  0
  7  8  1  0
  8  9  1  0
  9 10  1  0
  1 11  1  0
  1 12  1  0
  1 13  1  0
  2 14  1  0
  2 15  1  0
  3 16  1  0
  3 17  1  0
  4 18  1  0
  4 19  1  0
  7 20  1  0
  7 21  1  0
  8 22  1  0
  8 23  1  0
  9 24  1  0
  9 25  1  0
 10 26  1  0
 10 27  1  0
 10 28  1  0
M  END
>  <partial_charges>  (462) 
-0.0917000025511
-0.0793000012636
-0.075300000608
-0.180899992585
0.5625
-0.529299974442
-0.180899992585
-0.075300000608
-0.0793000012636
-0.0917000025511
0.034699998796
0.034699998796
0.034699998796
0.03579999879
0.03579999879
0.0546000003815
0.0546000003815
0.0628999993205
0.0628999993205
0.0628999993205
0.0628999993205
0.0546000003815
0.0546000003815
0.03579999879
0.03579999879
0.034699998796
0.034699998796
0.034699998796

>  <partial_bond_orders>  (462) 
1.0
1.0
1.0
1.0
2.0
1.0
1.0
1.0
1.0
1.0
1.0
1.0
1.0
1.0
1.0
1.0
1.0
1.0
1.0
1.0
1.0
1.0
1.0
1.0
1.0
1.0
1.0

>  <atom_types>  (462) 
c3
c3
c3
c3
c
o
c3
c3
c3
c3
hc
hc
hc
hc
hc
hc
hc
hc
hc
hc
hc
hc
hc
hc
hc
hc
hc
hc

>  <target>  (462) 
-2.64

>  <cal>  (462) 
-2.364

$$$$
mobley_9460824
     RDKit          3D

 30 29  0  0  0  0  0  0  0  0999 V2000
    2.1150   -0.3050   -3.0130 C   0  0  0  0  0  0  0  0  0  0  0  0
    1.5200   -1.2570   -1.9970 C   0  0  0  0  0  0  0  0  0  0  0  0
    1.5520   -0.6470   -0.7180 O   0  0  0  0  0  0  0  0  0  0  0  0
    0.9730   -1.4400    0.5880 P   0  0  0  0  0  0  0  0  0  0  0  0
    1.8940   -3.1340    0.9510 S   0  0  0  0  0  0  0  0  0  0  0  0
    1.2500   -0.3130    1.7400 O   0  0  0  0  0  0  0  0  0  0  0  0
    2.5660    0.1450    2.0030 C   0  0  0  0  0  0  0  0  0  0  0  0
    2.5190    1.1770    3.1100 C   0  0  0  0  0  0  0  0  0  0  0  0
   -1.1430   -1.4970    0.3900 S   0  0  0  0  0  0  0  0  0  0  0  0
   -1.6610    0.2380    0.3410 C   0  0  0  0  0  0  0  0  0  0  0  0
   -3.4610    0.3740    0.1730 S   0  0  0  0  0  0  0  0  0  0  0  0
   -3.5940    2.1770    0.1610 C   0  0  0  0  0  0  0  0  0  0  0  0
   -5.0440    2.6080    0.0250 C   0  0  0  0  0  0  0  0  0  0  0  0
    0.0000    0.0000    0.0000 H   0  0  0  0  0  0  0  0  0  0  0  0
    0.0000    0.0000    0.0000 H   0  0  0  0  0  0  0  0  0  0  0  0
    0.0000    0.0000    0.0000 H   0  0  0  0  0  0  0  0  0  0  0  0
    0.0000    0.0000    0.0000 H   0  0  0  0  0  0  0  0  0  0  0  0
    0.0000    0.0000    0.0000 H   0  0  0  0  0  0  0  0  0  0  0  0
    0.0000    0.0000    0.0000 H   0  0  0  0  0  0  0  0  0  0  0  0
    0.0000    0.0000    0.0000 H   0  0  0  0  0  0  0  0  0  0  0  0
    0.0000    0.0000    0.0000 H   0  0  0  0  0  0  0  0  0  0  0  0
    0.0000    0.0000    0.0000 H   0  0  0  0  0  0  0  0  0  0  0  0
    0.0000    0.0000    0.0000 H   0  0  0  0  0  0  0  0  0  0  0  0
    0.0000    0.0000    0.0000 H   0  0  0  0  0  0  0  0  0  0  0  0
    0.0000    0.0000    0.0000 H   0  0  0  0  0  0  0  0  0  0  0  0
    0.0000    0.0000    0.0000 H   0  0  0  0  0  0  0  0  0  0  0  0
    0.0000    0.0000    0.0000 H   0  0  0  0  0  0  0  0  0  0  0  0
    0.0000    0.0000    0.0000 H   0  0  0  0  0  0  0  0  0  0  0  0
    0.0000    0.0000    0.0000 H   0  0  0  0  0  0  0  0  0  0  0  0
    0.0000    0.0000    0.0000 H   0  0  0  0  0  0  0  0  0  0  0  0
  1  2  1  0
  2  3  1  0
  3  4  1  0
  4  5  2  0
  4  6  1  0
  6  7  1  0
  7  8  1  0
  4  9  1  0
  9 10  1  0
 10 11  1  0
 11 12  1  0
 12 13  1  0
  1 14  1  0
  1 15  1  0
  1 16  1  0
  2 17  1  0
  2 18  1  0
  7 19  1  0
  7 20  1  0
  8 21  1  0
  8 22  1  0
  8 23  1  0
 10 24  1  0
 10 25  1  0
 12 26  1  0
 12 27  1  0
 13 28  1  0
 13 29  1  0
 13 30  1  0
M  END
>  <partial_charges>  (463) 
-0.0957000032067
0.135399997234
-0.481799989939
0.845200002193
-0.488299995661
-0.481799989939
0.135399997234
-0.0957000032067
-0.346100002527
0.157100006938
-0.202199995518
-0.0287999995053
-0.0839999988675
0.0568000003695
0.0568000003695
0.0568000003695
0.0640000030398
0.0640000030398
0.0640000030398
0.0640000030398
0.0568000003695
0.0568000003695
0.0568000003695
0.0863000005484
0.0863000005484
0.0592000000179
0.0592000000179
0.0480000004172
0.0480000004172
0.0480000004172

>  <partial_bond_orders>  (463) 
1.0
1.0
1.0
2.0
1.0
1.0
1.0
1.0
1.0
1.0
1.0
1.0
1.0
1.0
1.0
1.0
1.0
1.0
1.0
1.0
1.0
1.0
1.0
1.0
1.0
1.0
1.0
1.0
1.0

>  <atom_types>  (463) 
c3
c3
os
p5
s
os
c3
c3
ss
c3
ss
c3
c3
hc
hc
hc
h1
h1
h1
h1
hc
hc
hc
h2
h2
h1
h1
hc
hc
hc

>  <target>  (463) 
-4.37

>  <cal>  (463) 
-6.427

$$$$
mobley_3969312
     RDKit          3D

 14 14  0  0  0  0  0  0  0  0999 V2000
    1.8850   -1.0360   -0.1120 C   0  0  0  0  0  0  0  0  0  0  0  0
    2.9210   -1.6310    0.6080 C   0  0  0  0  0  0  0  0  0  0  0  0
    2.8780   -1.6520    2.0020 C   0  0  0  0  0  0  0  0  0  0  0  0
    1.8000   -1.0790    2.6760 C   0  0  0  0  0  0  0  0  0  0  0  0
    0.7640   -0.4840    1.9550 C   0  0  0  0  0  0  0  0  0  0  0  0
    0.8070   -0.4630    0.5610 C   0  0  0  0  0  0  0  0  0  0  0  0
    1.7550   -1.1010    4.1290 C   0  0  0  0  0  0  0  0  0  0  0  0
    2.6390   -1.6110    4.8230 O   0  0  0  0  0  0  0  0  0  0  0  0
    0.0000    0.0000    0.0000 H   0  0  0  0  0  0  0  0  0  0  0  0
    0.0000    0.0000    0.0000 H   0  0  0  0  0  0  0  0  0  0  0  0
    0.0000    0.0000    0.0000 H   0  0  0  0  0  0  0  0  0  0  0  0
    0.0000    0.0000    0.0000 H   0  0  0  0  0  0  0  0  0  0  0  0
    0.0000    0.0000    0.0000 H   0  0  0  0  0  0  0  0  0  0  0  0
    0.0000    0.0000    0.0000 H   0  0  0  0  0  0  0  0  0  0  0  0
  1  6  2  0
  1  2  1  0
  2  3  2  0
  3  4  1  0
  4  5  2  0
  5  6  1  0
  4  7  1  0
  7  8  2  0
  1  9  1  0
  2 10  1  0
  3 11  1  0
  5 12  1  0
  6 13  1  0
  7 14  1  0
M  END
>  <partial_charges>  (464) 
-0.0986000001431
-0.145300000906
-0.0781999975443
-0.197999998927
-0.0781999975443
-0.145300000906
0.575900018215
-0.528199970722
0.135199993849
0.137400001287
0.144400000572
0.144400000572
0.137400001287
-0.00289999996312

>  <partial_bond_orders>  (464) 
2.0
1.0
2.0
1.0
2.0
1.0
1.0
2.0
1.0
1.0
1.0
1.0
1.0
1.0

>  <atom_types>  (464) 
ca
ca
ca
ca
ca
ca
c
o
ha
ha
ha
ha
ha
h4

>  <target>  (464) 
-4.02

>  <cal>  (464) 
-5.058

$$$$
mobley_4603202
     RDKit          3D

 15 14  0  0  0  0  0  0  0  0999 V2000
   -0.7820   -0.2450   -0.7260 C   0  0  0  0  0  0  0  0  0  0  0  0
    0.2690    0.0620    0.3250 C   0  0  0  0  0  0  0  0  0  0  0  0
    1.3540   -1.3320    0.5620 Cl  0  0  0  0  0  0  0  0  0  0  0  0
   -0.1500   -0.5460   -1.9630 O   0  0  0  0  0  0  0  0  0  0  0  0
   -1.1010   -0.8400   -2.9770 C   0  0  0  0  0  0  0  0  0  0  0  0
   -0.3840   -1.1540   -4.2770 C   0  0  0  0  0  0  0  0  0  0  0  0
    0.6040    0.2320   -4.8060 Cl  0  0  0  0  0  0  0  0  0  0  0  0
    0.0000    0.0000    0.0000 H   0  0  0  0  0  0  0  0  0  0  0  0
    0.0000    0.0000    0.0000 H   0  0  0  0  0  0  0  0  0  0  0  0
    0.0000    0.0000    0.0000 H   0  0  0  0  0  0  0  0  0  0  0  0
    0.0000    0.0000    0.0000 H   0  0  0  0  0  0  0  0  0  0  0  0
    0.0000    0.0000    0.0000 H   0  0  0  0  0  0  0  0  0  0  0  0
    0.0000    0.0000    0.0000 H   0  0  0  0  0  0  0  0  0  0  0  0
    0.0000    0.0000    0.0000 H   0  0  0  0  0  0  0  0  0  0  0  0
    0.0000    0.0000    0.0000 H   0  0  0  0  0  0  0  0  0  0  0  0
  1  2  1  0
  2  3  1  0
  1  4  1  0
  4  5  1  0
  5  6  1  0
  6  7  1  0
  1  8  1  0
  1  9  1  0
  2 10  1  0
  2 11  1  0
  5 12  1  0
  5 13  1  0
  6 14  1  0
  6 15  1  0
M  END
>  <partial_charges>  (465) 
0.11930000037
0.0303000006825
-0.182099997997
-0.423099994659
0.119400002062
0.0303000006825
-0.182099997997
0.0436000004411
0.0436000004411
0.0784000009298
0.0784000009298
0.0436000004411
0.0436000004411
0.0784000009298
0.0784000009298

>  <partial_bond_orders>  (465) 
1.0
1.0
1.0
1.0
1.0
1.0
1.0
1.0
1.0
1.0
1.0
1.0
1.0
1.0

>  <atom_types>  (465) 
c3
c3
cl
os
c3
c3
cl
h1
h1
h1
h1
h1
h1
h1
h1

>  <target>  (465) 
-4.23

>  <cal>  (465) 
-2.248

$$$$
mobley_2183616
     RDKit          3D

 24 24  0  0  1  0  0  0  0  0999 V2000
    0.3470    0.8550    0.4440 C   0  0  0  0  0  0  0  0  0  0  0  0
    0.3960    0.8500    1.9670 C   0  0  0  0  0  0  0  0  0  0  0  0
   -0.9890    0.6450    2.6150 C   0  0  0  0  0  0  0  0  0  0  0  0
   -0.8830    0.7540    4.1410 C   0  0  0  0  0  0  0  0  0  0  0  0
   -1.6450   -0.6670    2.2200 C   0  0  0  0  0  0  0  0  0  0  0  0
   -3.0350   -0.7620    2.1630 C   0  0  0  0  0  0  0  0  0  0  0  0
   -3.6380   -1.9660    1.8000 C   0  0  0  0  0  0  0  0  0  0  0  0
   -2.8500   -3.0760    1.4950 C   0  0  0  0  0  0  0  0  0  0  0  0
   -1.4590   -2.9810    1.5520 C   0  0  0  0  0  0  0  0  0  0  0  0
   -0.8570   -1.7770    1.9150 C   0  0  0  0  0  0  0  0  0  0  0  0
    0.0000    0.0000    0.0000 H   0  0  0  0  0  0  0  0  0  0  0  0
    0.0000    0.0000    0.0000 H   0  0  0  0  0  0  0  0  0  0  0  0
    0.0000    0.0000    0.0000 H   0  0  0  0  0  0  0  0  0  0  0  0
    0.0000    0.0000    0.0000 H   0  0  0  0  0  0  0  0  0  0  0  0
    0.0000    0.0000    0.0000 H   0  0  0  0  0  0  0  0  0  0  0  0
    0.0000    0.0000    0.0000 H   0  0  0  0  0  0  0  0  0  0  0  0
    0.0000    0.0000    0.0000 H   0  0  0  0  0  0  0  0  0  0  0  0
    0.0000    0.0000    0.0000 H   0  0  0  0  0  0  0  0  0  0  0  0
    0.0000    0.0000    0.0000 H   0  0  0  0  0  0  0  0  0  0  0  0
    0.0000    0.0000    0.0000 H   0  0  0  0  0  0  0  0  0  0  0  0
    0.0000    0.0000    0.0000 H   0  0  0  0  0  0  0  0  0  0  0  0
    0.0000    0.0000    0.0000 H   0  0  0  0  0  0  0  0  0  0  0  0
    0.0000    0.0000    0.0000 H   0  0  0  0  0  0  0  0  0  0  0  0
    0.0000    0.0000    0.0000 H   0  0  0  0  0  0  0  0  0  0  0  0
  1  2  1  0
  2  3  1  0
  3  4  1  0
  3  5  1  0
  5 10  2  0
  5  6  1  0
  6  7  2  0
  7  8  1  0
  8  9  2  0
  9 10  1  0
  1 11  1  0
  1 12  1  0
  1 13  1  0
  2 14  1  0
  2 15  1  0
  3 16  1  0
  4 17  1  0
  4 18  1  0
  4 19  1  0
  6 20  1  0
  7 21  1  0
  8 22  1  0
  9 23  1  0
 10 24  1  0
M  END
>  <partial_charges>  (466) 
-0.095600001514
-0.0746000036597
-0.0220999997109
0.0535999983549
-0.0878999978304
-0.0688000023365
-0.129199996591
-0.129299998283
-0.134000003338
-0.129299998283
-0.129199996591
0.0359000004828
0.0359000004828
0.0359000004828
0.0390000008047
0.0390000008047
0.0368000008166
0.0368000008166
0.0368000008166
0.130799993873
0.129800006747
0.129199996591
0.129800006747
0.130799993873

>  <partial_bond_orders>  (466) 
1.0
1.0
1.0
1.0
1.0
2.0
1.0
2.0
1.0
2.0
1.0
1.0
1.0
1.0
1.0
1.0
1.0
1.0
1.0
1.0
1.0
1.0
1.0
1.0

>  <atom_types>  (466) 
c3
c3
c3
hc
c3
ca
ca
ca
ca
ca
ca
hc
hc
hc
hc
hc
hc
hc
hc
ha
ha
ha
ha
ha

>  <target>  (466) 
-0.45

>  <cal>  (466) 
-0.22

$$$$
mobley_8685905
     RDKit          3D

  8  7  0  0  1  0  0  0  0  0999 V2000
    0.3330    0.3730   -0.5570 C   0  0  0  0  0  0  0  0  0  0  0  0
   -0.2240   -0.3060    0.6650 C   0  0  0  0  0  0  0  0  0  0  0  0
    0.1770    0.3020    1.8020 F   0  0  0  0  0  0  0  0  0  0  0  0
    0.1950   -1.5910    0.7190 F   0  0  0  0  0  0  0  0  0  0  0  0
   -1.5740   -0.3230    0.6520 F   0  0  0  0  0  0  0  0  0  0  0  0
   -0.0970    1.6600   -0.5850 F   0  0  0  0  0  0  0  0  0  0  0  0
   -0.2480   -0.5400   -2.1700 Br  0  0  0  0  0  0  0  0  0  0  0  0
    0.0000    0.0000    0.0000 H   0  0  0  0  0  0  0  0  0  0  0  0
  1  2  1  0
  2  3  1  0
  2  4  1  0
  2  5  1  0
  1  6  1  0
  1  7  1  0
  1  8  1  0
M  END
>  <partial_charges>  (467) 
0.199100002646
0.117600001395
0.612999975681
-0.216000005603
-0.216000005603
-0.216000005603
-0.177499994636
-0.104199998081

>  <partial_bond_orders>  (467) 
1.0
1.0
1.0
1.0
1.0
1.0
1.0

>  <atom_types>  (467) 
c3
h2
c3
f
f
f
f
br

>  <target>  (467) 
0.5

>  <cal>  (467) 
0.234

$$$$
mobley_5445548
     RDKit          3D

 21 21  0  0  0  0  0  0  0  0999 V2000
    2.6350    0.2400   -2.1260 C   0  0  0  0  0  0  0  0  0  0  0  0
    1.9310   -1.0140   -1.6030 C   0  0  0  0  0  0  0  0  0  0  0  0
    0.5330   -1.1480   -2.2110 C   0  0  0  0  0  0  0  0  0  0  0  0
    1.8850   -1.0360   -0.1120 C   0  0  0  0  0  0  0  0  0  0  0  0
    2.9210   -1.6310    0.6080 C   0  0  0  0  0  0  0  0  0  0  0  0
    2.8780   -1.6520    2.0020 C   0  0  0  0  0  0  0  0  0  0  0  0
    1.8000   -1.0790    2.6760 C   0  0  0  0  0  0  0  0  0  0  0  0
    0.7640   -0.4840    1.9550 C   0  0  0  0  0  0  0  0  0  0  0  0
    0.8070   -0.4630    0.5610 C   0  0  0  0  0  0  0  0  0  0  0  0
    0.0000    0.0000    0.0000 H   0  0  0  0  0  0  0  0  0  0  0  0
    0.0000    0.0000    0.0000 H   0  0  0  0  0  0  0  0  0  0  0  0
    0.0000    0.0000    0.0000 H   0  0  0  0  0  0  0  0  0  0  0  0
    0.0000    0.0000    0.0000 H   0  0  0  0  0  0  0  0  0  0  0  0
    0.0000    0.0000    0.0000 H   0  0  0  0  0  0  0  0  0  0  0  0
    0.0000    0.0000    0.0000 H   0  0  0  0  0  0  0  0  0  0  0  0
    0.0000    0.0000    0.0000 H   0  0  0  0  0  0  0  0  0  0  0  0
    0.0000    0.0000    0.0000 H   0  0  0  0  0  0  0  0  0  0  0  0
    0.0000    0.0000    0.0000 H   0  0  0  0  0  0  0  0  0  0  0  0
    0.0000    0.0000    0.0000 H   0  0  0  0  0  0  0  0  0  0  0  0
    0.0000    0.0000    0.0000 H   0  0  0  0  0  0  0  0  0  0  0  0
    0.0000    0.0000    0.0000 H   0  0  0  0  0  0  0  0  0  0  0  0
  1  2  1  0
  2  3  1  0
  2  4  1  0
  4  9  2  0
  4  5  1  0
  5  6  2  0
  6  7  1  0
  7  8  2  0
  8  9  1  0
  1 10  1  0
  1 11  1  0
  1 12  1  0
  2 13  1  0
  3 14  1  0
  3 15  1  0
  3 16  1  0
  5 17  1  0
  6 18  1  0
  7 19  1  0
  8 20  1  0
  9 21  1  0
M  END
>  <partial_charges>  (468) 
-0.0878999978304
-0.0263000000268
-0.0878999978304
-0.0719999969006
-0.127700001001
-0.129099994898
-0.133900001645
-0.129099994898
-0.127700001001
0.0364999994636
0.0364999994636
0.0364999994636
0.0502999983728
0.0364999994636
0.0364999994636
0.0364999994636
0.131799995899
0.129399999976
0.129800006747
0.129399999976
0.131799995899

>  <partial_bond_orders>  (468) 
1.0
1.0
1.0
2.0
1.0
2.0
1.0
2.0
1.0
1.0
1.0
1.0
1.0
1.0
1.0
1.0
1.0
1.0
1.0
1.0
1.0

>  <atom_types>  (468) 
c3
c3
c3
ca
ca
ca
ca
ca
ca
hc
hc
hc
hc
hc
hc
hc
ha
ha
ha
ha
ha

>  <target>  (468) 
-0.3

>  <cal>  (468) 
-0.674

$$$$
mobley_6619554
     RDKit          3D

 23 22  0  0  0  0  0  0  0  0999 V2000
   -0.5100    0.9080    0.3410 C   0  0  0  0  0  0  0  0  0  0  0  0
   -0.5730    0.9580    1.8590 C   0  0  0  0  0  0  0  0  0  0  0  0
    0.8240    0.9590    2.4780 C   0  0  0  0  0  0  0  0  0  0  0  0
    0.7560    1.0090    4.0030 C   0  0  0  0  0  0  0  0  0  0  0  0
    2.1310    1.0100    4.6320 C   0  0  0  0  0  0  0  0  0  0  0  0
    3.1880    0.9760    4.0170 O   0  0  0  0  0  0  0  0  0  0  0  0
    1.9960    1.0540    5.9910 O   0  0  0  0  0  0  0  0  0  0  0  0
    3.2200    1.0590    6.7320 C   0  0  0  0  0  0  0  0  0  0  0  0
    2.8900    1.1090    8.2050 C   0  0  0  0  0  0  0  0  0  0  0  0
    0.0000    0.0000    0.0000 H   0  0  0  0  0  0  0  0  0  0  0  0
    0.0000    0.0000    0.0000 H   0  0  0  0  0  0  0  0  0  0  0  0
    0.0000    0.0000    0.0000 H   0  0  0  0  0  0  0  0  0  0  0  0
    0.0000    0.0000    0.0000 H   0  0  0  0  0  0  0  0  0  0  0  0
    0.0000    0.0000    0.0000 H   0  0  0  0  0  0  0  0  0  0  0  0
    0.0000    0.0000    0.0000 H   0  0  0  0  0  0  0  0  0  0  0  0
    0.0000    0.0000    0.0000 H   0  0  0  0  0  0  0  0  0  0  0  0
    0.0000    0.0000    0.0000 H   0  0  0  0  0  0  0  0  0  0  0  0
    0.0000    0.0000    0.0000 H   0  0  0  0  0  0  0  0  0  0  0  0
    0.0000    0.0000    0.0000 H   0  0  0  0  0  0  0  0  0  0  0  0
    0.0000    0.0000    0.0000 H   0  0  0  0  0  0  0  0  0  0  0  0
    0.0000    0.0000    0.0000 H   0  0  0  0  0  0  0  0  0  0  0  0
    0.0000    0.0000    0.0000 H   0  0  0  0  0  0  0  0  0  0  0  0
    0.0000    0.0000    0.0000 H   0  0  0  0  0  0  0  0  0  0  0  0
  1  2  1  0
  2  3  1  0
  3  4  1  0
  4  5  1  0
  5  6  2  0
  5  7  1  0
  7  8  1  0
  8  9  1  0
  1 10  1  0
  1 11  1  0
  1 12  1  0
  2 13  1  0
  2 14  1  0
  3 15  1  0
  3 16  1  0
  4 17  1  0
  4 18  1  0
  8 19  1  0
  8 20  1  0
  9 21  1  0
  9 22  1  0
  9 23  1  0
M  END
>  <partial_charges>  (469) 
-0.0973000004888
-0.0785999968648
-0.0776000022888
-0.130799993873
0.633099973202
-0.538100004196
-0.446399986744
0.132899999619
-0.12729999423
0.0351999998093
0.0351999998093
0.0351999998093
0.0445000007749
0.0445000007749
0.0531000010669
0.0531000010669
0.0782999992371
0.0782999992371
0.0653000026941
0.0653000026941
0.0474000014365
0.0474000014365
0.0474000014365

>  <partial_bond_orders>  (469) 
1.0
1.0
1.0
1.0
2.0
1.0
1.0
1.0
1.0
1.0
1.0
1.0
1.0
1.0
1.0
1.0
1.0
1.0
1.0
1.0
1.0
1.0

>  <atom_types>  (469) 
c3
c3
c3
c3
c
o
os
c3
c3
hc
hc
hc
hc
hc
hc
hc
hc
hc
h1
h1
hc
hc
hc

>  <target>  (469) 
-2.49

>  <cal>  (469) 
-3.11

$$$$
mobley_6358463
     RDKit          3D

 18 18  0  0  0  0  0  0  0  0999 V2000
    1.8850   -1.0360   -0.1120 C   0  0  0  0  0  0  0  0  0  0  0  0
    2.9210   -1.6310    0.6080 C   0  0  0  0  0  0  0  0  0  0  0  0
    2.8780   -1.6520    2.0020 C   0  0  0  0  0  0  0  0  0  0  0  0
    1.8000   -1.0790    2.6760 C   0  0  0  0  0  0  0  0  0  0  0  0
    0.7640   -0.4840    1.9550 C   0  0  0  0  0  0  0  0  0  0  0  0
    0.8070   -0.4630    0.5610 C   0  0  0  0  0  0  0  0  0  0  0  0
   -0.4010    0.1370    2.6540 C   0  0  0  0  0  0  0  0  0  0  0  0
   -0.3280    0.0530    4.0150 F   0  0  0  0  0  0  0  0  0  0  0  0
   -0.5520    1.4660    2.3850 F   0  0  0  0  0  0  0  0  0  0  0  0
   -1.5870   -0.4460    2.3130 F   0  0  0  0  0  0  0  0  0  0  0  0
    1.7760   -1.1130    4.1680 C   0  0  0  0  0  0  0  0  0  0  0  0
    2.8630   -1.7300    4.7170 F   0  0  0  0  0  0  0  0  0  0  0  0
    1.7410    0.1250    4.7420 F   0  0  0  0  0  0  0  0  0  0  0  0
    0.6900   -1.7770    4.6590 F   0  0  0  0  0  0  0  0  0  0  0  0
    0.0000    0.0000    0.0000 H   0  0  0  0  0  0  0  0  0  0  0  0
    0.0000    0.0000    0.0000 H   0  0  0  0  0  0  0  0  0  0  0  0
    0.0000    0.0000    0.0000 H   0  0  0  0  0  0  0  0  0  0  0  0
    0.0000    0.0000    0.0000 H   0  0  0  0  0  0  0  0  0  0  0  0
  1  6  2  0
  1  2  1  0
  2  3  2  0
  3  4  1  0
  4  5  2  0
  5  6  1  0
  5  7  1  0
  7  8  1  0
  7  9  1  0
  7 10  1  0
  4 11  1  0
 11 12  1  0
 11 13  1  0
 11 14  1  0
  1 15  1  0
  2 16  1  0
  3 17  1  0
  6 18  1  0
M  END
>  <partial_charges>  (470) 
-0.105400003493
-0.1053000018
-0.0936999991536
-0.116899996996
-0.116899996996
-0.0936999991536
0.685699999332
-0.227200001478
-0.227200001478
-0.227200001478
0.685699999332
-0.227200001478
-0.227200001478
-0.227200001478
0.15039999783
0.15039999783
0.161500006914
0.161500006914

>  <partial_bond_orders>  (470) 
2.0
1.0
2.0
1.0
2.0
1.0
1.0
1.0
1.0
1.0
1.0
1.0
1.0
1.0
1.0
1.0
1.0
1.0

>  <atom_types>  (470) 
ca
ca
ca
ca
ca
ca
c3
f
f
f
c3
f
f
f
ha
ha
ha
ha

>  <target>  (470) 
1.07

>  <cal>  (470) 
-1.441

$$$$
mobley_2481002
     RDKit          3D

  7  6  0  0  0  0  0  0  0  0999 V2000
   -0.0380    0.1700    0.5740 C   0  0  0  0  0  0  0  0  0  0  0  0
    0.0430   -0.2730   -0.8750 N   0  0  0  0  0  0  0  0  0  0  0  0
    0.5320    0.5270   -1.6890 O   0  0  0  0  0  0  0  0  0  0  0  0
   -0.3550   -1.4070   -1.1780 O   0  0  0  0  0  0  0  0  0  0  0  0
   -1.0450    1.6170    0.5840 Cl  0  0  0  0  0  0  0  0  0  0  0  0
   -0.7650   -1.1170    1.5360 Cl  0  0  0  0  0  0  0  0  0  0  0  0
    1.6290    0.4800    1.0500 Cl  0  0  0  0  0  0  0  0  0  0  0  0
  1  2  1  0
  2  3  1  0
  2  4  1  0
  1  5  1  0
  1  6  1  0
  1  7  1  0
M  CHG  2   3  -1   4  -1
M  END
>  <partial_charges>  (471) 
0.182699993253
0.23219999671
-0.147400006652
-0.147400006652
-0.0399999991059
-0.0399999991059
-0.0399999991059

>  <partial_bond_orders>  (471) 
1.0
1.0
1.0
1.0
1.0
1.0

>  <atom_types>  (471) 
c3
no
o
o
cl
cl
cl

>  <target>  (471) 
-1.45

>  <cal>  (471) 
-0.379

$$$$
mobley_9565165
     RDKit          3D

 23 25  0  0  0  0  0  0  0  0999 V2000
   -4.9620   -4.0690    3.8310 C   0  0  0  0  0  0  0  0  0  0  0  0
   -4.9950   -2.6690    3.7010 C   0  0  0  0  0  0  0  0  0  0  0  0
   -4.0210   -1.9920    2.9620 C   0  0  0  0  0  0  0  0  0  0  0  0
   -3.0200   -2.7370    2.3590 C   0  0  0  0  0  0  0  0  0  0  0  0
   -2.9930   -4.1430    2.4930 C   0  0  0  0  0  0  0  0  0  0  0  0
   -3.9540   -4.8190    3.2230 C   0  0  0  0  0  0  0  0  0  0  0  0
   -1.8090   -4.7230    1.7470 C   0  0  0  0  0  0  0  0  0  0  0  0
   -1.1660   -3.4780    1.1730 C   0  0  0  0  0  0  0  0  0  0  0  0
   -1.8950   -2.3270    1.5460 C   0  0  0  0  0  0  0  0  0  0  0  0
   -1.4870   -1.0710    1.1310 C   0  0  0  0  0  0  0  0  0  0  0  0
   -0.3400   -0.9760    0.3380 C   0  0  0  0  0  0  0  0  0  0  0  0
    0.3810   -2.1240   -0.0300 C   0  0  0  0  0  0  0  0  0  0  0  0
   -0.0300   -3.3910    0.3870 C   0  0  0  0  0  0  0  0  0  0  0  0
    0.0000    0.0000    0.0000 H   0  0  0  0  0  0  0  0  0  0  0  0
    0.0000    0.0000    0.0000 H   0  0  0  0  0  0  0  0  0  0  0  0
    0.0000    0.0000    0.0000 H   0  0  0  0  0  0  0  0  0  0  0  0
    0.0000    0.0000    0.0000 H   0  0  0  0  0  0  0  0  0  0  0  0
    0.0000    0.0000    0.0000 H   0  0  0  0  0  0  0  0  0  0  0  0
    0.0000    0.0000    0.0000 H   0  0  0  0  0  0  0  0  0  0  0  0
    0.0000    0.0000    0.0000 H   0  0  0  0  0  0  0  0  0  0  0  0
    0.0000    0.0000    0.0000 H   0  0  0  0  0  0  0  0  0  0  0  0
    0.0000    0.0000    0.0000 H   0  0  0  0  0  0  0  0  0  0  0  0
    0.0000    0.0000    0.0000 H   0  0  0  0  0  0  0  0  0  0  0  0
  1  6  2  0
  1  2  1  0
  2  3  2  0
  3  4  1  0
  4  9  1  0
  4  5  2  0
  5  6  1  0
  5  7  1  0
  7  8  1  0
  8 13  1  0
  8  9  2  0
  9 10  1  0
 10 11  2  0
 11 12  1  0
 12 13  2  0
  1 14  1  0
  2 15  1  0
  3 16  1  0
  6 17  1  0
  7 18  1  0
  7 19  1  0
 10 20  1  0
 11 21  1  0
 12 22  1  0
 13 23  1  0
M  END
>  <partial_charges>  (472) 
-0.126300007105
-0.133100003004
-0.103299997747
-0.0410999991
-0.0842999964952
-0.118000000715
0.00430000014603
-0.0842999964952
-0.0410999991
-0.103299997747
-0.133100003004
-0.126300007105
-0.118000000715
0.130799993873
0.13030000031
0.135900005698
0.134100005031
0.0728999972343
0.0728999972343
0.135900005698
0.13030000031
0.130799993873
0.134100005031

>  <partial_bond_orders>  (472) 
2.0
1.0
2.0
1.0
1.0
2.0
1.0
1.0
1.0
2.0
1.0
2.0
1.0
2.0
1.0
1.0
1.0
1.0
1.0
1.0
1.0
1.0
1.0
1.0
1.0

>  <atom_types>  (472) 
ca
ca
ca
cp
ca
ca
c3
ca
cp
ca
ca
ca
ca
ha
ha
ha
ha
hc
hc
ha
ha
ha
ha

>  <target>  (472) 
-3.35

>  <cal>  (472) 
-4.269

$$$$
mobley_9028462
     RDKit          3D

 11 10  0  0  0  0  0  0  0  0999 V2000
   -0.4490   -0.9870    0.1660 C   0  0  0  0  0  0  0  0  0  0  0  0
   -0.8570   -1.1190    1.5320 O   0  0  0  0  0  0  0  0  0  0  0  0
    0.1400   -1.0130    2.4550 C   0  0  0  0  0  0  0  0  0  0  0  0
    1.3260   -0.8200    2.2250 O   0  0  0  0  0  0  0  0  0  0  0  0
   -0.4290   -1.1780    3.8270 C   0  0  0  0  0  0  0  0  0  0  0  0
   -1.7690   -1.3870    3.8020 F   0  0  0  0  0  0  0  0  0  0  0  0
    0.1220   -2.2320    4.4810 F   0  0  0  0  0  0  0  0  0  0  0  0
   -0.2160   -0.0810    4.5960 F   0  0  0  0  0  0  0  0  0  0  0  0
    0.0000    0.0000    0.0000 H   0  0  0  0  0  0  0  0  0  0  0  0
    0.0000    0.0000    0.0000 H   0  0  0  0  0  0  0  0  0  0  0  0
    0.0000    0.0000    0.0000 H   0  0  0  0  0  0  0  0  0  0  0  0
  1  2  1  0
  2  3  1  0
  3  4  2  0
  3  5  1  0
  5  6  1  0
  5  7  1  0
  5  8  1  0
  1  9  1  0
  1 10  1  0
  1 11  1  0
M  END
>  <partial_charges>  (473) 
0.121899999678
-0.40340000391
0.590099990368
-0.467900007963
0.605700016022
-0.212099999189
-0.212099999189
-0.212099999189
0.063299998641
0.063299998641
0.063299998641

>  <partial_bond_orders>  (473) 
1.0
1.0
2.0
1.0
1.0
1.0
1.0
1.0
1.0
1.0

>  <atom_types>  (473) 
c3
os
c
o
c3
f
f
f
h1
h1
h1

>  <target>  (473) 
-1.1

>  <cal>  (473) 
-1.353

$$$$
mobley_7326706
     RDKit          3D

 29 29  0  0  0  0  0  0  0  0999 V2000
    2.6940   -0.1500   -0.3080 C   0  0  0  0  0  0  0  0  0  0  0  0
    1.7990   -1.1310   -1.0340 C   0  0  0  0  0  0  0  0  0  0  0  0
    0.8700   -0.4090   -1.8260 O   0  0  0  0  0  0  0  0  0  0  0  0
   -0.2260   -1.2120   -2.7240 P   0  0  0  0  0  0  0  0  0  0  0  0
   -1.4490   -2.3690   -1.7410 S   0  0  0  0  0  0  0  0  0  0  0  0
    0.7380   -1.9140   -3.8320 O   0  0  0  0  0  0  0  0  0  0  0  0
    0.1880   -2.3660   -5.0580 C   0  0  0  0  0  0  0  0  0  0  0  0
    1.2900   -2.9740   -5.9000 C   0  0  0  0  0  0  0  0  0  0  0  0
   -0.8840    0.0040   -3.5710 O   0  0  0  0  0  0  0  0  0  0  0  0
   -1.5330    1.0950   -3.0580 C   0  0  0  0  0  0  0  0  0  0  0  0
   -2.0480    2.0600   -3.9080 C   0  0  0  0  0  0  0  0  0  0  0  0
   -2.6960    3.1500   -3.3380 C   0  0  0  0  0  0  0  0  0  0  0  0
   -2.8080    3.2400   -1.9540 C   0  0  0  0  0  0  0  0  0  0  0  0
   -2.2590    2.2210   -1.1920 C   0  0  0  0  0  0  0  0  0  0  0  0
   -1.6220    1.1470   -1.7100 N   0  0  0  0  0  0  0  0  0  0  0  0
   -2.3230    2.1970    0.5290 Cl  0  0  0  0  0  0  0  0  0  0  0  0
   -3.6140    4.5970   -1.2670 Cl  0  0  0  0  0  0  0  0  0  0  0  0
   -1.9060    1.9440   -5.6180 Cl  0  0  0  0  0  0  0  0  0  0  0  0
    0.0000    0.0000    0.0000 H   0  0  0  0  0  0  0  0  0  0  0  0
    0.0000    0.0000    0.0000 H   0  0  0  0  0  0  0  0  0  0  0  0
    0.0000    0.0000    0.0000 H   0  0  0  0  0  0  0  0  0  0  0  0
    0.0000    0.0000    0.0000 H   0  0  0  0  0  0  0  0  0  0  0  0
    0.0000    0.0000    0.0000 H   0  0  0  0  0  0  0  0  0  0  0  0
    0.0000    0.0000    0.0000 H   0  0  0  0  0  0  0  0  0  0  0  0
    0.0000    0.0000    0.0000 H   0  0  0  0  0  0  0  0  0  0  0  0
    0.0000    0.0000    0.0000 H   0  0  0  0  0  0  0  0  0  0  0  0
    0.0000    0.0000    0.0000 H   0  0  0  0  0  0  0  0  0  0  0  0
    0.0000    0.0000    0.0000 H   0  0  0  0  0  0  0  0  0  0  0  0
    0.0000    0.0000    0.0000 H   0  0  0  0  0  0  0  0  0  0  0  0
  1  2  1  0
  2  3  1  0
  3  4  1  0
  4  5  2  0
  4  6  1  0
  6  7  1  0
  7  8  1  0
  4  9  1  0
  9 10  1  0
 10 15  2  0
 10 11  1  0
 11 12  2  0
 12 13  1  0
 13 14  2  0
 14 15  1  0
 14 16  1  0
 13 17  1  0
 11 18  1  0
  1 19  1  0
  1 20  1  0
  1 21  1  0
  2 22  1  0
  2 23  1  0
  7 24  1  0
  7 25  1  0
  8 26  1  0
  8 27  1  0
  8 28  1  0
 12 29  1  0
M  END
>  <partial_charges>  (474) 
-0.113499999046
0.153300002217
-0.52120000124
1.24849998951
-0.608600020409
-0.52120000124
0.153300002217
-0.113499999046
-0.563099980354
0.662899971008
-0.0811000019312
-0.0668999999762
-0.0925000011921
0.515699982643
-0.657400012016
-0.102799996734
-0.0287999995053
-0.0324999988079
0.054999999702
0.054999999702
0.054999999702
0.0653999969363
0.0653999969363
0.0653999969363
0.0653999969363
0.054999999702
0.054999999702
0.054999999702
0.178200006485

>  <partial_bond_orders>  (474) 
1.0
1.0
1.0
2.0
1.0
1.0
1.0
1.0
1.0
2.0
1.0
2.0
1.0
2.0
1.0
1.0
1.0
1.0
1.0
1.0
1.0
1.0
1.0
1.0
1.0
1.0
1.0
1.0
1.0

>  <atom_types>  (474) 
c3
c3
os
p5
s
os
c3
c3
os
ca
ca
ca
ca
ca
nb
cl
cl
cl
hc
hc
hc
h1
h1
h1
h1
hc
hc
hc
ha

>  <target>  (474) 
-5.04

>  <cal>  (474) 
-9.625

$$$$
mobley_3234716
     RDKit          3D

 18 18  0  0  0  0  0  0  0  0999 V2000
    1.9310   -1.0130   -1.6030 C   0  0  0  0  0  0  0  0  0  0  0  0
    1.8850   -1.0360   -0.1120 C   0  0  0  0  0  0  0  0  0  0  0  0
    2.9210   -1.6310    0.6080 C   0  0  0  0  0  0  0  0  0  0  0  0
    2.8780   -1.6520    2.0020 C   0  0  0  0  0  0  0  0  0  0  0  0
    1.8000   -1.0790    2.6760 C   0  0  0  0  0  0  0  0  0  0  0  0
    0.7640   -0.4840    1.9550 C   0  0  0  0  0  0  0  0  0  0  0  0
    0.8070   -0.4630    0.5610 C   0  0  0  0  0  0  0  0  0  0  0  0
    1.7530   -1.1040    4.1660 C   0  0  0  0  0  0  0  0  0  0  0  0
    0.0000    0.0000    0.0000 H   0  0  0  0  0  0  0  0  0  0  0  0
    0.0000    0.0000    0.0000 H   0  0  0  0  0  0  0  0  0  0  0  0
    0.0000    0.0000    0.0000 H   0  0  0  0  0  0  0  0  0  0  0  0
    0.0000    0.0000    0.0000 H   0  0  0  0  0  0  0  0  0  0  0  0
    0.0000    0.0000    0.0000 H   0  0  0  0  0  0  0  0  0  0  0  0
    0.0000    0.0000    0.0000 H   0  0  0  0  0  0  0  0  0  0  0  0
    0.0000    0.0000    0.0000 H   0  0  0  0  0  0  0  0  0  0  0  0
    0.0000    0.0000    0.0000 H   0  0  0  0  0  0  0  0  0  0  0  0
    0.0000    0.0000    0.0000 H   0  0  0  0  0  0  0  0  0  0  0  0
    0.0000    0.0000    0.0000 H   0  0  0  0  0  0  0  0  0  0  0  0
  1  2  1  0
  2  7  2  0
  2  3  1  0
  3  4  2  0
  4  5  1  0
  5  6  2  0
  6  7  1  0
  5  8  1  0
  1  9  1  0
  1 10  1  0
  1 11  1  0
  3 12  1  0
  4 13  1  0
  6 14  1  0
  7 15  1  0
  8 16  1  0
  8 17  1  0
  8 18  1  0
M  END
>  <partial_charges>  (475) 
-0.0529000014067
-0.0816999971867
-0.12729999423
-0.12729999423
-0.0816999971867
-0.12729999423
-0.12729999423
-0.0527999997139
0.0432000011206
0.0432000011206
0.0432000011206
0.129800006747
0.129800006747
0.129800006747
0.129800006747
0.0432000011206
0.0432000011206
0.0432000011206

>  <partial_bond_orders>  (475) 
1.0
2.0
1.0
2.0
1.0
2.0
1.0
1.0
1.0
1.0
1.0
1.0
1.0
1.0
1.0
1.0
1.0
1.0

>  <atom_types>  (475) 
c3
ca
ca
ca
ca
ca
ca
c3
hc
hc
hc
ha
ha
ha
ha
hc
hc
hc

>  <target>  (475) 
-0.8

>  <cal>  (475) 
-0.658

$$$$
mobley_2049967
     RDKit          3D

 12 11  0  0  0  0  0  0  0  0999 V2000
    0.4410   -0.3500    0.9400 C   0  0  0  0  0  0  0  0  0  0  0  0
    1.8520   -0.8680    0.7340 C   0  0  0  0  0  0  0  0  0  0  0  0
    2.9260    0.4450    0.0920 S   0  0  0  0  0  0  0  0  0  0  0  0
    4.4610   -0.5020   -0.0230 C   0  0  0  0  0  0  0  0  0  0  0  0
    0.0000    0.0000    0.0000 H   0  0  0  0  0  0  0  0  0  0  0  0
    0.0000    0.0000    0.0000 H   0  0  0  0  0  0  0  0  0  0  0  0
    0.0000    0.0000    0.0000 H   0  0  0  0  0  0  0  0  0  0  0  0
    0.0000    0.0000    0.0000 H   0  0  0  0  0  0  0  0  0  0  0  0
    0.0000    0.0000    0.0000 H   0  0  0  0  0  0  0  0  0  0  0  0
    0.0000    0.0000    0.0000 H   0  0  0  0  0  0  0  0  0  0  0  0
    0.0000    0.0000    0.0000 H   0  0  0  0  0  0  0  0  0  0  0  0
    0.0000    0.0000    0.0000 H   0  0  0  0  0  0  0  0  0  0  0  0
  1  2  1  0
  2  3  1  0
  3  4  1  0
  1  5  1  0
  1  6  1  0
  1  7  1  0
  2  8  1  0
  2  9  1  0
  4 10  1  0
  4 11  1  0
  4 12  1  0
M  END
>  <partial_charges>  (476) 
-0.0811000019312
-0.0135000003502
-0.294299989939
-0.0401000007987
0.0450000017881
0.0450000017881
0.0450000017881
0.0544999986887
0.0544999986887
0.061700001359
0.061700001359
0.061700001359

>  <partial_bond_orders>  (476) 
1.0
1.0
1.0
1.0
1.0
1.0
1.0
1.0
1.0
1.0
1.0

>  <atom_types>  (476) 
c3
c3
ss
c3
hc
hc
hc
h1
h1
h1
h1
h1

>  <target>  (476) 
-1.5

>  <cal>  (476) 
0.386

$$$$
mobley_2245668
     RDKit          3D

 15 14  0  0  0  0  0  0  0  0999 V2000
    0.9980   -0.3580   -0.2740 C   0  0  0  0  0  0  0  0  0  0  0  0
    1.8180    0.7470   -0.9440 C   0  0  0  0  0  0  0  0  0  0  0  0
    1.1580    1.1800   -2.2510 C   0  0  0  0  0  0  0  0  0  0  0  0
    1.9990    1.9490   -0.0130 C   0  0  0  0  0  0  0  0  0  0  0  0
    2.6750    1.5480    1.1710 O   0  0  0  0  0  0  0  0  0  0  0  0
    0.0000    0.0000    0.0000 H   0  0  0  0  0  0  0  0  0  0  0  0
    0.0000    0.0000    0.0000 H   0  0  0  0  0  0  0  0  0  0  0  0
    0.0000    0.0000    0.0000 H   0  0  0  0  0  0  0  0  0  0  0  0
    0.0000    0.0000    0.0000 H   0  0  0  0  0  0  0  0  0  0  0  0
    0.0000    0.0000    0.0000 H   0  0  0  0  0  0  0  0  0  0  0  0
    0.0000    0.0000    0.0000 H   0  0  0  0  0  0  0  0  0  0  0  0
    0.0000    0.0000    0.0000 H   0  0  0  0  0  0  0  0  0  0  0  0
    0.0000    0.0000    0.0000 H   0  0  0  0  0  0  0  0  0  0  0  0
    0.0000    0.0000    0.0000 H   0  0  0  0  0  0  0  0  0  0  0  0
    0.0000    0.0000    0.0000 H   0  0  0  0  0  0  0  0  0  0  0  0
  1  2  1  0
  2  3  1  0
  2  4  1  0
  4  5  1  0
  1  6  1  0
  1  7  1  0
  1  8  1  0
  2  9  1  0
  3 10  1  0
  3 11  1  0
  3 12  1  0
  4 13  1  0
  4 14  1  0
  5 15  1  0
M  END
>  <partial_charges>  (477) 
-0.0900999978185
-0.0703999996185
-0.0900999978185
0.134200006723
-0.601100027561
0.0364999994636
0.0364999994636
0.0364999994636
0.0597000010312
0.0364999994636
0.0364999994636
0.0364999994636
0.0204000007361
0.0204000007361
0.398000001907

>  <partial_bond_orders>  (477) 
1.0
1.0
1.0
1.0
1.0
1.0
1.0
1.0
1.0
1.0
1.0
1.0
1.0
1.0

>  <atom_types>  (477) 
c3
c3
c3
c3
oh
hc
hc
hc
hc
hc
hc
hc
h1
h1
ho

>  <target>  (477) 
-4.5

>  <cal>  (477) 
-3.13

$$$$
mobley_9913368
     RDKit          3D

  6  5  0  0  0  0  0  0  0  0999 V2000
   -0.0950    0.5820    0.3080 C   0  0  0  0  0  0  0  0  0  0  0  0
    0.0950   -0.5820   -0.3080 C   0  0  0  0  0  0  0  0  0  0  0  0
    1.0320   -1.8460    0.3690 Cl  0  0  0  0  0  0  0  0  0  0  0  0
   -1.0310    1.8460   -0.3700 Cl  0  0  0  0  0  0  0  0  0  0  0  0
    0.0000    0.0000    0.0000 H   0  0  0  0  0  0  0  0  0  0  0  0
    0.0000    0.0000    0.0000 H   0  0  0  0  0  0  0  0  0  0  0  0
  1  2  2  0
  2  3  1  0
  1  4  1  0
  1  5  1  0
  2  6  1  0
M  END
>  <partial_charges>  (478) 
-0.0702000036836
-0.0702000036836
-0.0945999994874
-0.0945999994874
0.164800003171
0.164800003171

>  <partial_bond_orders>  (478) 
2.0
1.0
1.0
1.0
1.0

>  <atom_types>  (478) 
c2
c2
cl
cl
h4
h4

>  <target>  (478) 
-0.78

>  <cal>  (478) 
1.024

$$$$
mobley_5052949
     RDKit          3D

 21 20  0  0  0  0  0  0  0  0999 V2000
   -0.3680   -0.3230    3.3290 C   0  0  0  0  0  0  0  0  0  0  0  0
    1.1200   -0.3490    3.6470 C   0  0  0  0  0  0  0  0  0  0  0  0
    1.8810   -1.2100    2.6450 C   0  0  0  0  0  0  0  0  0  0  0  0
    3.6530   -1.2290    3.0400 S   0  0  0  0  0  0  0  0  0  0  0  0
    4.2090   -2.3030    1.6970 C   0  0  0  0  0  0  0  0  0  0  0  0
    5.7200   -2.5160    1.7640 C   0  0  0  0  0  0  0  0  0  0  0  0
    6.2040   -3.4190    0.6380 C   0  0  0  0  0  0  0  0  0  0  0  0
    0.0000    0.0000    0.0000 H   0  0  0  0  0  0  0  0  0  0  0  0
    0.0000    0.0000    0.0000 H   0  0  0  0  0  0  0  0  0  0  0  0
    0.0000    0.0000    0.0000 H   0  0  0  0  0  0  0  0  0  0  0  0
    0.0000    0.0000    0.0000 H   0  0  0  0  0  0  0  0  0  0  0  0
    0.0000    0.0000    0.0000 H   0  0  0  0  0  0  0  0  0  0  0  0
    0.0000    0.0000    0.0000 H   0  0  0  0  0  0  0  0  0  0  0  0
    0.0000    0.0000    0.0000 H   0  0  0  0  0  0  0  0  0  0  0  0
    0.0000    0.0000    0.0000 H   0  0  0  0  0  0  0  0  0  0  0  0
    0.0000    0.0000    0.0000 H   0  0  0  0  0  0  0  0  0  0  0  0
    0.0000    0.0000    0.0000 H   0  0  0  0  0  0  0  0  0  0  0  0
    0.0000    0.0000    0.0000 H   0  0  0  0  0  0  0  0  0  0  0  0
    0.0000    0.0000    0.0000 H   0  0  0  0  0  0  0  0  0  0  0  0
    0.0000    0.0000    0.0000 H   0  0  0  0  0  0  0  0  0  0  0  0
    0.0000    0.0000    0.0000 H   0  0  0  0  0  0  0  0  0  0  0  0
  1  2  1  0
  2  3  1  0
  3  4  1  0
  4  5  1  0
  5  6  1  0
  6  7  1  0
  1  8  1  0
  1  9  1  0
  1 10  1  0
  2 11  1  0
  2 12  1  0
  3 13  1  0
  3 14  1  0
  5 15  1  0
  5 16  1  0
  6 17  1  0
  6 18  1  0
  7 19  1  0
  7 20  1  0
  7 21  1  0
M  END
>  <partial_charges>  (479) 
-0.0932999998331
-0.0697999969125
-0.00910000037402
-0.31099998951
-0.00910000037402
-0.0697999969125
-0.0931999981403
0.0351999998093
0.0351999998093
0.0351999998093
0.0544999986887
0.0544999986887
0.0564999990165
0.0564999990165
0.0564999990165
0.0564999990165
0.0544999986887
0.0544999986887
0.0351999998093
0.0351999998093
0.0351999998093

>  <partial_bond_orders>  (479) 
1.0
1.0
1.0
1.0
1.0
1.0
1.0
1.0
1.0
1.0
1.0
1.0
1.0
1.0
1.0
1.0
1.0
1.0
1.0
1.0

>  <atom_types>  (479) 
c3
c3
c3
ss
c3
c3
c3
hc
hc
hc
hc
hc
h1
h1
h1
h1
hc
hc
hc
hc
hc

>  <target>  (479) 
-1.28

>  <cal>  (479) 
0.64

$$$$
mobley_7859387
     RDKit          3D

 22 21  0  0  0  0  0  0  0  0999 V2000
   -1.4680   -2.7120   -1.7350 C   0  0  0  0  0  0  0  0  0  0  0  0
   -0.3290   -1.9800   -1.0430 C   0  0  0  0  0  0  0  0  0  0  0  0
   -0.8110   -0.6870   -0.3860 C   0  0  0  0  0  0  0  0  0  0  0  0
    0.3390    0.0460    0.3090 C   0  0  0  0  0  0  0  0  0  0  0  0
   -0.1470    1.3420    0.9680 C   0  0  0  0  0  0  0  0  0  0  0  0
    0.9780    2.0970    1.6690 C   0  0  0  0  0  0  0  0  0  0  0  0
    0.5360    3.3810    2.3320 C   0  0  0  0  0  0  0  0  0  0  0  0
   -0.6110    3.8140    2.3290 O   0  0  0  0  0  0  0  0  0  0  0  0
    0.0000    0.0000    0.0000 H   0  0  0  0  0  0  0  0  0  0  0  0
    0.0000    0.0000    0.0000 H   0  0  0  0  0  0  0  0  0  0  0  0
    0.0000    0.0000    0.0000 H   0  0  0  0  0  0  0  0  0  0  0  0
    0.0000    0.0000    0.0000 H   0  0  0  0  0  0  0  0  0  0  0  0
    0.0000    0.0000    0.0000 H   0  0  0  0  0  0  0  0  0  0  0  0
    0.0000    0.0000    0.0000 H   0  0  0  0  0  0  0  0  0  0  0  0
    0.0000    0.0000    0.0000 H   0  0  0  0  0  0  0  0  0  0  0  0
    0.0000    0.0000    0.0000 H   0  0  0  0  0  0  0  0  0  0  0  0
    0.0000    0.0000    0.0000 H   0  0  0  0  0  0  0  0  0  0  0  0
    0.0000    0.0000    0.0000 H   0  0  0  0  0  0  0  0  0  0  0  0
    0.0000    0.0000    0.0000 H   0  0  0  0  0  0  0  0  0  0  0  0
    0.0000    0.0000    0.0000 H   0  0  0  0  0  0  0  0  0  0  0  0
    0.0000    0.0000    0.0000 H   0  0  0  0  0  0  0  0  0  0  0  0
    0.0000    0.0000    0.0000 H   0  0  0  0  0  0  0  0  0  0  0  0
  1  2  1  0
  2  3  1  0
  3  4  1  0
  4  5  1  0
  5  6  1  0
  6  7  1  0
  7  8  2  0
  1  9  1  0
  1 10  1  0
  1 11  1  0
  2 12  1  0
  2 13  1  0
  3 14  1  0
  3 15  1  0
  4 16  1  0
  4 17  1  0
  5 18  1  0
  5 19  1  0
  6 20  1  0
  6 21  1  0
  7 22  1  0
M  END
>  <partial_charges>  (480) 
-0.0922999978065
-0.0793000012636
-0.0785000026226
-0.0772999972105
-0.0746999979019
-0.198500007391
0.563700020313
-0.523400008678
0.0333999991417
0.0333999991417
0.0333999991417
0.0373999997973
0.0373999997973
0.041400000453
0.041400000453
0.0373000018299
0.0373000018299
0.0535000003874
0.0535000003874
0.0658999979496
0.0658999979496
-0.0109000001103

>  <partial_bond_orders>  (480) 
1.0
1.0
1.0
1.0
1.0
1.0
2.0
1.0
1.0
1.0
1.0
1.0
1.0
1.0
1.0
1.0
1.0
1.0
1.0
1.0
1.0

>  <atom_types>  (480) 
c3
c3
c3
c3
c3
c3
c
o
hc
hc
hc
hc
hc
hc
hc
hc
hc
hc
hc
hc
hc
h4

>  <target>  (480) 
-2.67

>  <cal>  (480) 
-2.704

$$$$
mobley_3378420
     RDKit          3D

 30 29  0  0  0  0  0  0  0  0999 V2000
   -1.8710    1.8430    4.1150 C   0  0  0  0  0  0  0  0  0  0  0  0
   -2.3270    1.9110    2.6650 C   0  0  0  0  0  0  0  0  0  0  0  0
   -1.9720    3.2560    2.0320 C   0  0  0  0  0  0  0  0  0  0  0  0
   -2.4110    3.3760    0.5690 C   0  0  0  0  0  0  0  0  0  0  0  0
   -2.0820    4.7040   -0.1200 C   0  0  0  0  0  0  0  0  0  0  0  0
   -2.5440    4.7640   -1.5780 C   0  0  0  0  0  0  0  0  0  0  0  0
   -2.1910    6.1100   -2.2160 C   0  0  0  0  0  0  0  0  0  0  0  0
   -2.6520    6.1710   -3.6750 C   0  0  0  0  0  0  0  0  0  0  0  0
   -2.3110    7.5030   -4.3320 C   0  0  0  0  0  0  0  0  0  0  0  0
   -2.7600    7.5080   -5.6790 O   0  0  0  0  0  0  0  0  0  0  0  0
    0.0000    0.0000    0.0000 H   0  0  0  0  0  0  0  0  0  0  0  0
    0.0000    0.0000    0.0000 H   0  0  0  0  0  0  0  0  0  0  0  0
    0.0000    0.0000    0.0000 H   0  0  0  0  0  0  0  0  0  0  0  0
    0.0000    0.0000    0.0000 H   0  0  0  0  0  0  0  0  0  0  0  0
    0.0000    0.0000    0.0000 H   0  0  0  0  0  0  0  0  0  0  0  0
    0.0000    0.0000    0.0000 H   0  0  0  0  0  0  0  0  0  0  0  0
    0.0000    0.0000    0.0000 H   0  0  0  0  0  0  0  0  0  0  0  0
    0.0000    0.0000    0.0000 H   0  0  0  0  0  0  0  0  0  0  0  0
    0.0000    0.0000    0.0000 H   0  0  0  0  0  0  0  0  0  0  0  0
    0.0000    0.0000    0.0000 H   0  0  0  0  0  0  0  0  0  0  0  0
    0.0000    0.0000    0.0000 H   0  0  0  0  0  0  0  0  0  0  0  0
    0.0000    0.0000    0.0000 H   0  0  0  0  0  0  0  0  0  0  0  0
    0.0000    0.0000    0.0000 H   0  0  0  0  0  0  0  0  0  0  0  0
    0.0000    0.0000    0.0000 H   0  0  0  0  0  0  0  0  0  0  0  0
    0.0000    0.0000    0.0000 H   0  0  0  0  0  0  0  0  0  0  0  0
    0.0000    0.0000    0.0000 H   0  0  0  0  0  0  0  0  0  0  0  0
    0.0000    0.0000    0.0000 H   0  0  0  0  0  0  0  0  0  0  0  0
    0.0000    0.0000    0.0000 H   0  0  0  0  0  0  0  0  0  0  0  0
    0.0000    0.0000    0.0000 H   0  0  0  0  0  0  0  0  0  0  0  0
    0.0000    0.0000    0.0000 H   0  0  0  0  0  0  0  0  0  0  0  0
  1  2  1  0
  2  3  1  0
  3  4  1  0
  4  5  1  0
  5  6  1  0
  6  7  1  0
  7  8  1  0
  8  9  1  0
  9 10  1  0
  1 11  1  0
  1 12  1  0
  1 13  1  0
  2 14  1  0
  2 15  1  0
  3 16  1  0
  3 17  1  0
  4 18  1  0
  4 19  1  0
  5 20  1  0
  5 21  1  0
  6 22  1  0
  6 23  1  0
  7 24  1  0
  7 25  1  0
  8 26  1  0
  8 27  1  0
  9 28  1  0
  9 29  1  0
 10 30  1  0
M  END
>  <partial_charges>  (481) 
-0.0917000025511
-0.0802000015974
-0.0788000002503
-0.0781000033021
-0.0780000016093
-0.0782999992371
-0.0773999989033
-0.0846000015736
0.13220000267
-0.602599978447
0.0328000001609
0.0328000001609
0.0328000001609
0.0377000011504
0.0377000011504
0.0384999997914
0.0384999997914
0.0399000011384
0.0399000011384
0.0392000004649
0.0392000004649
0.0410000011325
0.0410000011325
0.0392000004649
0.0392000004649
0.054999999702
0.054999999702
0.0197999998927
0.0197999998927
0.398600012064

>  <partial_bond_orders>  (481) 
1.0
1.0
1.0
1.0
1.0
1.0
1.0
1.0
1.0
1.0
1.0
1.0
1.0
1.0
1.0
1.0
1.0
1.0
1.0
1.0
1.0
1.0
1.0
1.0
1.0
1.0
1.0
1.0
1.0

>  <atom_types>  (481) 
c3
c3
c3
c3
c3
c3
c3
c3
c3
oh
hc
hc
hc
hc
hc
hc
hc
hc
hc
hc
hc
hc
hc
hc
hc
hc
hc
h1
h1
ho

>  <target>  (481) 
-3.88

>  <cal>  (481) 
-2.564

$$$$
mobley_9557440
     RDKit          3D

 12 12  0  0  0  0  0  0  0  0999 V2000
    0.1740    0.0040   -1.5030 C   0  0  0  0  0  0  0  0  0  0  0  0
    1.0790   -0.2700   -0.5600 C   0  0  0  0  0  0  0  0  0  0  0  0
    0.6850   -0.2130    0.8720 C   0  0  0  0  0  0  0  0  0  0  0  0
    1.4780   -0.4560    1.7780 O   0  0  0  0  0  0  0  0  0  0  0  0
   -0.6440    0.1360    1.0860 N   0  0  0  0  0  0  0  0  0  0  0  0
   -1.5950    0.4230    0.1020 C   0  0  0  0  0  0  0  0  0  0  0  0
   -2.7580    0.7250    0.3690 O   0  0  0  0  0  0  0  0  0  0  0  0
   -1.1170    0.3390   -1.1980 N   0  0  0  0  0  0  0  0  0  0  0  0
    2.6980   -0.6890   -0.9450 Cl  0  0  0  0  0  0  0  0  0  0  0  0
    0.0000    0.0000    0.0000 H   0  0  0  0  0  0  0  0  0  0  0  0
    0.0000    0.0000    0.0000 H   0  0  0  0  0  0  0  0  0  0  0  0
    0.0000    0.0000    0.0000 H   0  0  0  0  0  0  0  0  0  0  0  0
  1  8  1  0
  1  2  2  0
  2  3  1  0
  3  4  2  0
  3  5  1  0
  5  6  1  0
  6  7  2  0
  6  8  1  0
  2  9  1  0
  1 10  1  0
  5 11  1  0
  8 12  1  0
M  END
>  <partial_charges>  (482) 
0.0482000000775
-0.174500003457
0.719900012016
-0.581799983978
-0.585300028324
0.803699970245
-0.628300011158
-0.464899986982
-0.027499999851
0.171900004148
0.358000010252
0.360599994659

>  <partial_bond_orders>  (482) 
1.0
2.0
1.0
2.0
1.0
1.0
2.0
1.0
1.0
1.0
1.0
1.0

>  <atom_types>  (482) 
cc
cd
c
o
n
c
o
n
cl
h4
hn
hn

>  <target>  (482) 
-17.74

>  <cal>  (482) 
-16.612

$$$$
mobley_1792062
     RDKit          3D

  8  7  0  0  0  0  0  0  0  0999 V2000
   -0.3630    0.6420   -0.1610 C   0  0  0  0  0  0  0  0  0  0  0  0
    0.3630   -0.6410    0.1610 C   0  0  0  0  0  0  0  0  0  0  0  0
    0.4140   -0.8910    2.0900 Br  0  0  0  0  0  0  0  0  0  0  0  0
   -0.4140    0.8920   -2.0900 Br  0  0  0  0  0  0  0  0  0  0  0  0
    0.0000    0.0000    0.0000 H   0  0  0  0  0  0  0  0  0  0  0  0
    0.0000    0.0000    0.0000 H   0  0  0  0  0  0  0  0  0  0  0  0
    0.0000    0.0000    0.0000 H   0  0  0  0  0  0  0  0  0  0  0  0
    0.0000    0.0000    0.0000 H   0  0  0  0  0  0  0  0  0  0  0  0
  1  2  1  0
  2  3  1  0
  1  4  1  0
  1  5  1  0
  1  6  1  0
  2  7  1  0
  2  8  1  0
M  END
>  <partial_charges>  (483) 
-0.0148000000045
-0.0148000000045
-0.162300005555
-0.162300005555
0.0885000005364
0.0885000005364
0.0885000005364
0.0885000005364

>  <partial_bond_orders>  (483) 
1.0
1.0
1.0
1.0
1.0
1.0
1.0

>  <atom_types>  (483) 
c3
c3
br
br
h1
h1
h1
h1

>  <target>  (483) 
-2.33

>  <cal>  (483) 
-1.275

$$$$
mobley_3034976
     RDKit          3D

  8  7  0  0  0  0  0  0  0  0999 V2000
   -1.0280    0.3450   -0.1340 C   0  0  0  0  0  0  0  0  0  0  0  0
   -1.6530    0.6110    1.1990 C   0  0  0  0  0  0  0  0  0  0  0  0
   -2.6520    0.0530    1.6300 O   0  0  0  0  0  0  0  0  0  0  0  0
   -0.9600    1.5620    1.8710 O   0  0  0  0  0  0  0  0  0  0  0  0
    0.0000    0.0000    0.0000 H   0  0  0  0  0  0  0  0  0  0  0  0
    0.0000    0.0000    0.0000 H   0  0  0  0  0  0  0  0  0  0  0  0
    0.0000    0.0000    0.0000 H   0  0  0  0  0  0  0  0  0  0  0  0
    0.0000    0.0000    0.0000 H   0  0  0  0  0  0  0  0  0  0  0  0
  1  2  1  0
  2  3  2  0
  2  4  1  0
  1  5  1  0
  1  6  1  0
  1  7  1  0
  4  8  1  0
M  END
>  <partial_charges>  (484) 
-0.198799997568
0.624199986458
-0.486400008202
-0.584699988365
0.0742999985814
0.0742999985814
0.0742999985814
0.422699987888

>  <partial_bond_orders>  (484) 
1.0
2.0
1.0
1.0
1.0
1.0
1.0

>  <atom_types>  (484) 
c3
c
o
oh
hc
hc
hc
ho

>  <target>  (484) 
-6.69

>  <cal>  (484) 
-7.281

$$$$
mobley_5510474
     RDKit          3D

 22 24  0  0  0  0  0  0  0  0999 V2000
   -1.8580    0.7400    0.8000 C   0  0  0  0  0  0  0  0  0  0  0  0
   -1.0040   -0.2570    0.3260 C   0  0  0  0  0  0  0  0  0  0  0  0
   -1.4370   -1.5820    0.2690 C   0  0  0  0  0  0  0  0  0  0  0  0
   -2.7270   -1.9050    0.6890 C   0  0  0  0  0  0  0  0  0  0  0  0
   -3.5800   -0.9100    1.1630 C   0  0  0  0  0  0  0  0  0  0  0  0
   -3.1490    0.4150    1.2200 C   0  0  0  0  0  0  0  0  0  0  0  0
   -4.8560   -1.1830    1.5850 O   0  0  0  0  0  0  0  0  0  0  0  0
   -5.2390   -2.4980    1.5120 C   0  0  0  0  0  0  0  0  0  0  0  0
   -4.3860   -3.4940    1.0380 C   0  0  0  0  0  0  0  0  0  0  0  0
   -4.8170   -4.8180    0.9820 C   0  0  0  0  0  0  0  0  0  0  0  0
   -6.1070   -5.1430    1.4010 C   0  0  0  0  0  0  0  0  0  0  0  0
   -6.9620   -4.1460    1.8750 C   0  0  0  0  0  0  0  0  0  0  0  0
   -6.5290   -2.8210    1.9320 C   0  0  0  0  0  0  0  0  0  0  0  0
   -7.5650   -1.5540    2.5150 Cl  0  0  0  0  0  0  0  0  0  0  0  0
   -8.5730   -4.5520    2.3980 Cl  0  0  0  0  0  0  0  0  0  0  0  0
   -6.6450   -6.7990    1.3310 Cl  0  0  0  0  0  0  0  0  0  0  0  0
   -3.7240   -6.0320    0.3870 Cl  0  0  0  0  0  0  0  0  0  0  0  0
   -3.1090   -3.2200    0.6160 O   0  0  0  0  0  0  0  0  0  0  0  0
    0.0000    0.0000    0.0000 H   0  0  0  0  0  0  0  0  0  0  0  0
    0.0000    0.0000    0.0000 H   0  0  0  0  0  0  0  0  0  0  0  0
    0.0000    0.0000    0.0000 H   0  0  0  0  0  0  0  0  0  0  0  0
    0.0000    0.0000    0.0000 H   0  0  0  0  0  0  0  0  0  0  0  0
  1  6  2  0
  1  2  1  0
  2  3  2  0
  3  4  1  0
  4 18  1  0
  4  5  2  0
  5  6  1  0
  5  7  1  0
  7  8  1  0
  8 13  2  0
  8  9  1  0
  9 10  2  0
 10 11  1  0
 11 12  2  0
 12 13  1  0
 13 14  1  0
 12 15  1  0
 11 16  1  0
 10 17  1  0
  9 18  1  0
  1 19  1  0
  2 20  1  0
  3 21  1  0
  6 22  1  0
M  END
>  <partial_charges>  (485) 
-0.12349999696
-0.123400002718
-0.108900003135
0.0586000010371
0.0586000010371
-0.108900003135
-0.207300007343
0.0856999978423
0.0856999978423
0.0271000005305
0.0200999993831
0.0200999993831
0.0271000005305
-0.0237000007182
-0.0315999984741
-0.0315999984741
-0.0237000007182
-0.207300007343
0.143600001931
0.143600001931
0.159799993038
0.159799993038

>  <partial_bond_orders>  (485) 
2.0
1.0
2.0
1.0
1.0
2.0
1.0
1.0
1.0
2.0
1.0
2.0
1.0
2.0
1.0
1.0
1.0
1.0
1.0
1.0
1.0
1.0
1.0
1.0

>  <atom_types>  (485) 
ca
ca
ca
ca
ca
ca
os
ca
ca
ca
ca
ca
ca
cl
cl
cl
cl
os
ha
ha
ha
ha

>  <target>  (485) 
-3.81

>  <cal>  (485) 
-2.775

$$$$
mobley_1963873
     RDKit          3D

 12 11  0  0  0  0  0  0  0  0999 V2000
    0.9500   -0.2290    0.5090 C   0  0  0  0  0  0  0  0  0  0  0  0
    0.7450   -0.9430    1.8040 C   0  0  0  0  0  0  0  0  0  0  0  0
    0.1660   -2.0220    1.8130 O   0  0  0  0  0  0  0  0  0  0  0  0
    1.2540   -0.2750    2.9010 N   0  0  0  0  0  0  0  0  0  0  0  0
    1.1630   -0.7870    4.2500 C   0  0  0  0  0  0  0  0  0  0  0  0
    0.0000    0.0000    0.0000 H   0  0  0  0  0  0  0  0  0  0  0  0
    0.0000    0.0000    0.0000 H   0  0  0  0  0  0  0  0  0  0  0  0
    0.0000    0.0000    0.0000 H   0  0  0  0  0  0  0  0  0  0  0  0
    0.0000    0.0000    0.0000 H   0  0  0  0  0  0  0  0  0  0  0  0
    0.0000    0.0000    0.0000 H   0  0  0  0  0  0  0  0  0  0  0  0
    0.0000    0.0000    0.0000 H   0  0  0  0  0  0  0  0  0  0  0  0
    0.0000    0.0000    0.0000 H   0  0  0  0  0  0  0  0  0  0  0  0
  1  2  1  0
  2  3  2  0
  2  4  1  0
  4  5  1  0
  1  6  1  0
  1  7  1  0
  1  8  1  0
  4  9  1  0
  5 10  1  0
  5 11  1  0
  5 12  1  0
M  END
>  <partial_charges>  (486) 
-0.176699995995
0.659699976444
-0.603699982166
-0.583800017834
0.0841000005603
0.0641999989748
0.0641999989748
0.0641999989748
0.304899990559
0.0410000011325
0.0410000011325
0.0410000011325

>  <partial_bond_orders>  (486) 
1.0
2.0
1.0
1.0
1.0
1.0
1.0
1.0
1.0
1.0
1.0

>  <atom_types>  (486) 
c3
c
o
n
c3
hc
hc
hc
hn
h1
h1
h1

>  <target>  (486) 
-10.0

>  <cal>  (486) 
-8.276

$$$$
mobley_3980099
     RDKit          3D

 12 12  0  0  0  0  0  0  0  0999 V2000
    1.8850   -1.0360   -0.1120 C   0  0  0  0  0  0  0  0  0  0  0  0
    2.9210   -1.6310    0.6080 C   0  0  0  0  0  0  0  0  0  0  0  0
    2.8780   -1.6520    2.0020 C   0  0  0  0  0  0  0  0  0  0  0  0
    1.8000   -1.0790    2.6760 C   0  0  0  0  0  0  0  0  0  0  0  0
    0.7640   -0.4840    1.9550 C   0  0  0  0  0  0  0  0  0  0  0  0
    0.8070   -0.4630    0.5610 C   0  0  0  0  0  0  0  0  0  0  0  0
   -0.6060    0.2470    2.7200 Cl  0  0  0  0  0  0  0  0  0  0  0  0
    1.7460   -1.1050    4.4130 Cl  0  0  0  0  0  0  0  0  0  0  0  0
    4.1990   -2.4070    2.8270 Cl  0  0  0  0  0  0  0  0  0  0  0  0
    0.0000    0.0000    0.0000 H   0  0  0  0  0  0  0  0  0  0  0  0
    0.0000    0.0000    0.0000 H   0  0  0  0  0  0  0  0  0  0  0  0
    0.0000    0.0000    0.0000 H   0  0  0  0  0  0  0  0  0  0  0  0
  1  6  2  0
  1  2  1  0
  2  3  2  0
  3  4  1  0
  4  5  2  0
  5  6  1  0
  5  7  1  0
  4  8  1  0
  3  9  1  0
  1 10  1  0
  2 11  1  0
  6 12  1  0
M  END
>  <partial_charges>  (487) 
-0.113600000739
-0.118000000715
0.0236000008881
0.0166999995708
0.0236000008881
-0.118000000715
-0.0627000033855
-0.0447000004351
-0.0627000033855
0.14659999311
0.154599994421
0.154599994421

>  <partial_bond_orders>  (487) 
2.0
1.0
2.0
1.0
2.0
1.0
1.0
1.0
1.0
1.0
1.0
1.0

>  <atom_types>  (487) 
ca
ca
ca
ca
ca
ca
cl
cl
cl
ha
ha
ha

>  <target>  (487) 
-1.24

>  <cal>  (487) 
-0.51

$$$$
mobley_9507933
     RDKit          3D

 17 17  0  0  0  0  0  0  0  0999 V2000
    2.8860   -0.2680    3.6510 C   0  0  0  0  0  0  0  0  0  0  0  0
    1.6520   -0.6230    2.9000 C   0  0  0  0  0  0  0  0  0  0  0  0
    1.3880   -0.0680    1.6520 C   0  0  0  0  0  0  0  0  0  0  0  0
    0.2270   -0.4200    0.9730 C   0  0  0  0  0  0  0  0  0  0  0  0
   -0.6320   -1.3220    1.5800 C   0  0  0  0  0  0  0  0  0  0  0  0
   -0.4090   -1.8820    2.7910 N   0  0  0  0  0  0  0  0  0  0  0  0
    0.7300   -1.5160    3.4210 C   0  0  0  0  0  0  0  0  0  0  0  0
   -1.8870   -1.7230    0.8800 C   0  0  0  0  0  0  0  0  0  0  0  0
    0.0000    0.0000    0.0000 H   0  0  0  0  0  0  0  0  0  0  0  0
    0.0000    0.0000    0.0000 H   0  0  0  0  0  0  0  0  0  0  0  0
    0.0000    0.0000    0.0000 H   0  0  0  0  0  0  0  0  0  0  0  0
    0.0000    0.0000    0.0000 H   0  0  0  0  0  0  0  0  0  0  0  0
    0.0000    0.0000    0.0000 H   0  0  0  0  0  0  0  0  0  0  0  0
    0.0000    0.0000    0.0000 H   0  0  0  0  0  0  0  0  0  0  0  0
    0.0000    0.0000    0.0000 H   0  0  0  0  0  0  0  0  0  0  0  0
    0.0000    0.0000    0.0000 H   0  0  0  0  0  0  0  0  0  0  0  0
    0.0000    0.0000    0.0000 H   0  0  0  0  0  0  0  0  0  0  0  0
  1  2  1  0
  2  7  2  0
  2  3  1  0
  3  4  2  0
  4  5  1  0
  5  6  2  0
  6  7  1  0
  5  8  1  0
  1  9  1  0
  1 10  1  0
  1 11  1  0
  3 12  1  0
  4 13  1  0
  7 14  1  0
  8 15  1  0
  8 16  1  0
  8 17  1  0
M  END
>  <partial_charges>  (488) 
-0.0493000000715
-0.198899999261
-0.0927999988198
-0.244399994612
0.406399995089
-0.666599988937
0.400400012732
-0.149200007319
0.0458999983966
0.0458999983966
0.0458999983966
0.136700004339
0.141100004315
0.0209999997169
0.0527000017464
0.0527000017464
0.0527000017464

>  <partial_bond_orders>  (488) 
1.0
2.0
1.0
2.0
1.0
2.0
1.0
1.0
1.0
1.0
1.0
1.0
1.0
1.0
1.0
1.0
1.0

>  <atom_types>  (488) 
c3
ca
ca
ca
ca
nb
ca
c3
hc
hc
hc
ha
ha
h4
hc
hc
hc

>  <target>  (488) 
-4.72

>  <cal>  (488) 
-3.165

$$$$
mobley_3738859
     RDKit          3D

 17 16  0  0  0  0  0  0  0  0999 V2000
    0.4900   -1.2860   -2.1850 C   0  0  0  0  0  0  0  0  0  0  0  0
   -0.2130   -1.0980   -0.8500 C   0  0  0  0  0  0  0  0  0  0  0  0
    0.2300    0.1930   -0.1610 C   0  0  0  0  0  0  0  0  0  0  0  0
   -0.4790    0.3790    1.1810 C   0  0  0  0  0  0  0  0  0  0  0  0
   -0.0350    1.6630    1.8600 C   0  0  0  0  0  0  0  0  0  0  0  0
   -0.9580    1.8630    3.5620 Br  0  0  0  0  0  0  0  0  0  0  0  0
    0.0000    0.0000    0.0000 H   0  0  0  0  0  0  0  0  0  0  0  0
    0.0000    0.0000    0.0000 H   0  0  0  0  0  0  0  0  0  0  0  0
    0.0000    0.0000    0.0000 H   0  0  0  0  0  0  0  0  0  0  0  0
    0.0000    0.0000    0.0000 H   0  0  0  0  0  0  0  0  0  0  0  0
    0.0000    0.0000    0.0000 H   0  0  0  0  0  0  0  0  0  0  0  0
    0.0000    0.0000    0.0000 H   0  0  0  0  0  0  0  0  0  0  0  0
    0.0000    0.0000    0.0000 H   0  0  0  0  0  0  0  0  0  0  0  0
    0.0000    0.0000    0.0000 H   0  0  0  0  0  0  0  0  0  0  0  0
    0.0000    0.0000    0.0000 H   0  0  0  0  0  0  0  0  0  0  0  0
    0.0000    0.0000    0.0000 H   0  0  0  0  0  0  0  0  0  0  0  0
    0.0000    0.0000    0.0000 H   0  0  0  0  0  0  0  0  0  0  0  0
  1  2  1  0
  2  3  1  0
  3  4  1  0
  4  5  1  0
  5  6  1  0
  1  7  1  0
  1  8  1  0
  1  9  1  0
  2 10  1  0
  2 11  1  0
  3 12  1  0
  3 13  1  0
  4 14  1  0
  4 15  1  0
  5 16  1  0
  5 17  1  0
M  END
>  <partial_charges>  (489) 
-0.0927999988198
-0.0798000022769
-0.0806000009179
-0.0810000002384
-0.00860000029206
-0.179299995303
0.0340999998152
0.0340999998152
0.0340999998152
0.0408000014722
0.0408000014722
0.0417999997735
0.0417999997735
0.055799998343
0.055799998343
0.0715000033379
0.0715000033379

>  <partial_bond_orders>  (489) 
1.0
1.0
1.0
1.0
1.0
1.0
1.0
1.0
1.0
1.0
1.0
1.0
1.0
1.0
1.0
1.0

>  <atom_types>  (489) 
c3
c3
c3
c3
c3
br
hc
hc
hc
hc
hc
hc
hc
hc
hc
h1
h1

>  <target>  (489) 
-0.1

>  <cal>  (489) 
0.824

$$$$
mobley_5857
     RDKit          3D

 17 18  0  0  0  0  0  0  0  0999 V2000
    0.1300    2.0980   -0.4530 C   0  0  0  0  0  0  0  0  0  0  0  0
   -0.5470    0.8980   -0.2740 C   0  0  0  0  0  0  0  0  0  0  0  0
   -1.9320    0.8440   -0.4460 C   0  0  0  0  0  0  0  0  0  0  0  0
   -2.6680    1.9720   -0.7970 C   0  0  0  0  0  0  0  0  0  0  0  0
   -1.9750    3.1880   -0.9770 C   0  0  0  0  0  0  0  0  0  0  0  0
   -0.5810    3.2420   -0.8040 C   0  0  0  0  0  0  0  0  0  0  0  0
   -2.7150    4.3240   -1.3300 C   0  0  0  0  0  0  0  0  0  0  0  0
   -4.0900    4.2380   -1.4940 C   0  0  0  0  0  0  0  0  0  0  0  0
   -4.6800    3.0060   -1.2960 C   0  0  0  0  0  0  0  0  0  0  0  0
   -4.0030    1.8860   -0.9550 N   0  0  0  0  0  0  0  0  0  0  0  0
    0.0000    0.0000    0.0000 H   0  0  0  0  0  0  0  0  0  0  0  0
    0.0000    0.0000    0.0000 H   0  0  0  0  0  0  0  0  0  0  0  0
    0.0000    0.0000    0.0000 H   0  0  0  0  0  0  0  0  0  0  0  0
    0.0000    0.0000    0.0000 H   0  0  0  0  0  0  0  0  0  0  0  0
    0.0000    0.0000    0.0000 H   0  0  0  0  0  0  0  0  0  0  0  0
    0.0000    0.0000    0.0000 H   0  0  0  0  0  0  0  0  0  0  0  0
    0.0000    0.0000    0.0000 H   0  0  0  0  0  0  0  0  0  0  0  0
  1  6  2  0
  1  2  1  0
  2  3  2  0
  3  4  1  0
  4 10  1  0
  4  5  2  0
  5  6  1  0
  5  7  1  0
  7  8  2  0
  8  9  1  0
  9 10  2  0
  1 11  1  0
  2 12  1  0
  3 13  1  0
  6 14  1  0
  7 15  1  0
  8 16  1  0
  9 17  1  0
M  END
>  <partial_charges>  (490) 
-0.127000004053
-0.123899996281
-0.164199993014
0.392899990082
-0.147900000215
-0.111699998379
-0.0800999999046
-0.249899998307
0.411100000143
-0.657100021839
0.134399995208
0.135399997234
0.150700002909
0.13369999826
0.138199999928
0.143600001931
0.0219000000507

>  <partial_bond_orders>  (490) 
2.0
1.0
2.0
1.0
2.0
1.0
1.0
2.0
1.0
2.0
1.0
1.0
1.0
1.0
1.0
1.0
1.0
1.0

>  <atom_types>  (490) 
ca
ca
ca
ca
ca
ca
ca
ca
ca
nb
ha
ha
ha
ha
ha
ha
h4

>  <target>  (490) 
-5.72

>  <cal>  (490) 
-4.989

$$$$
mobley_5518547
     RDKit          3D

 17 17  0  0  0  0  0  0  0  0999 V2000
    1.9310   -1.0140   -1.6030 C   0  0  0  0  0  0  0  0  0  0  0  0
    1.8850   -1.0360   -0.1120 C   0  0  0  0  0  0  0  0  0  0  0  0
    2.9210   -1.6310    0.6080 C   0  0  0  0  0  0  0  0  0  0  0  0
    2.8780   -1.6520    2.0020 C   0  0  0  0  0  0  0  0  0  0  0  0
    1.8000   -1.0790    2.6760 C   0  0  0  0  0  0  0  0  0  0  0  0
    0.7640   -0.4840    1.9550 C   0  0  0  0  0  0  0  0  0  0  0  0
    0.8070   -0.4630    0.5610 C   0  0  0  0  0  0  0  0  0  0  0  0
    1.7570   -1.0990    4.0850 N   0  0  0  0  0  0  0  0  0  0  0  0
    0.0000    0.0000    0.0000 H   0  0  0  0  0  0  0  0  0  0  0  0
    0.0000    0.0000    0.0000 H   0  0  0  0  0  0  0  0  0  0  0  0
    0.0000    0.0000    0.0000 H   0  0  0  0  0  0  0  0  0  0  0  0
    0.0000    0.0000    0.0000 H   0  0  0  0  0  0  0  0  0  0  0  0
    0.0000    0.0000    0.0000 H   0  0  0  0  0  0  0  0  0  0  0  0
    0.0000    0.0000    0.0000 H   0  0  0  0  0  0  0  0  0  0  0  0
    0.0000    0.0000    0.0000 H   0  0  0  0  0  0  0  0  0  0  0  0
    0.0000    0.0000    0.0000 H   0  0  0  0  0  0  0  0  0  0  0  0
    0.0000    0.0000    0.0000 H   0  0  0  0  0  0  0  0  0  0  0  0
  1  2  1  0
  2  7  2  0
  2  3  1  0
  3  4  2  0
  4  5  1  0
  5  6  2  0
  6  7  1  0
  5  8  1  0
  1  9  1  0
  1 10  1  0
  1 11  1  0
  3 12  1  0
  4 13  1  0
  6 14  1  0
  7 15  1  0
  8 16  1  0
  8 17  1  0
M  END
>  <partial_charges>  (491) 
-0.0454999990761
-0.121899999678
-0.0920000001788
-0.188700005412
0.136199995875
-0.188700005412
-0.0920000001788
-0.821600019932
0.0397999994457
0.0397999994457
0.0397999994457
0.129099994898
0.129700005054
0.129700005054
0.129099994898
0.388599991798
0.388599991798

>  <partial_bond_orders>  (491) 
1.0
2.0
1.0
2.0
1.0
2.0
1.0
1.0
1.0
1.0
1.0
1.0
1.0
1.0
1.0
1.0
1.0

>  <atom_types>  (491) 
c3
ca
ca
ca
ca
ca
ca
nh
hc
hc
hc
ha
ha
ha
ha
hn
hn

>  <target>  (491) 
-5.57

>  <cal>  (491) 
-5.494

$$$$
mobley_778352
     RDKit          3D

 15 14  0  0  0  0  0  0  0  0999 V2000
   -0.9440   -0.4100    0.3920 C   0  0  0  0  0  0  0  0  0  0  0  0
   -1.3570    0.2480    1.6460 C   0  0  0  0  0  0  0  0  0  0  0  0
   -2.4530   -0.0040    2.3860 C   0  0  0  0  0  0  0  0  0  0  0  0
   -2.7320    0.7620    3.6500 C   0  0  0  0  0  0  0  0  0  0  0  0
   -3.4780   -1.0460    2.0350 C   0  0  0  0  0  0  0  0  0  0  0  0
    0.0000    0.0000    0.0000 H   0  0  0  0  0  0  0  0  0  0  0  0
    0.0000    0.0000    0.0000 H   0  0  0  0  0  0  0  0  0  0  0  0
    0.0000    0.0000    0.0000 H   0  0  0  0  0  0  0  0  0  0  0  0
    0.0000    0.0000    0.0000 H   0  0  0  0  0  0  0  0  0  0  0  0
    0.0000    0.0000    0.0000 H   0  0  0  0  0  0  0  0  0  0  0  0
    0.0000    0.0000    0.0000 H   0  0  0  0  0  0  0  0  0  0  0  0
    0.0000    0.0000    0.0000 H   0  0  0  0  0  0  0  0  0  0  0  0
    0.0000    0.0000    0.0000 H   0  0  0  0  0  0  0  0  0  0  0  0
    0.0000    0.0000    0.0000 H   0  0  0  0  0  0  0  0  0  0  0  0
    0.0000    0.0000    0.0000 H   0  0  0  0  0  0  0  0  0  0  0  0
  1  2  1  0
  2  3  2  0
  3  4  1  0
  3  5  1  0
  1  6  1  0
  1  7  1  0
  1  8  1  0
  2  9  1  0
  4 10  1  0
  4 11  1  0
  4 12  1  0
  5 13  1  0
  5 14  1  0
  5 15  1  0
M  END
>  <partial_charges>  (492) 
-0.0599000006914
-0.176699995995
-0.115400001407
-0.0608000010252
-0.0608000010252
0.0395999997854
0.0395999997854
0.0395999997854
0.114299997687
0.0401000007987
0.0401000007987
0.0401000007987
0.0401000007987
0.0401000007987
0.0401000007987

>  <partial_bond_orders>  (492) 
1.0
2.0
1.0
1.0
1.0
1.0
1.0
1.0
1.0
1.0
1.0
1.0
1.0
1.0

>  <atom_types>  (492) 
c3
c2
c2
c3
c3
hc
hc
hc
ha
hc
hc
hc
hc
hc
hc

>  <target>  (492) 
1.31

>  <cal>  (492) 
2.272

$$$$
mobley_1189457
     RDKit          3D

 16 16  0  0  0  0  0  0  0  0999 V2000
    1.9860   -2.7830   -2.2370 C   0  0  0  0  0  0  0  0  0  0  0  0
    1.9400   -1.0080   -1.8940 S   0  0  0  0  0  0  0  0  0  0  0  0
    1.8850   -1.0360   -0.1120 C   0  0  0  0  0  0  0  0  0  0  0  0
    2.9210   -1.6310    0.6080 C   0  0  0  0  0  0  0  0  0  0  0  0
    2.8780   -1.6520    2.0020 C   0  0  0  0  0  0  0  0  0  0  0  0
    1.8000   -1.0790    2.6760 C   0  0  0  0  0  0  0  0  0  0  0  0
    0.7640   -0.4840    1.9550 C   0  0  0  0  0  0  0  0  0  0  0  0
    0.8070   -0.4630    0.5610 C   0  0  0  0  0  0  0  0  0  0  0  0
    0.0000    0.0000    0.0000 H   0  0  0  0  0  0  0  0  0  0  0  0
    0.0000    0.0000    0.0000 H   0  0  0  0  0  0  0  0  0  0  0  0
    0.0000    0.0000    0.0000 H   0  0  0  0  0  0  0  0  0  0  0  0
    0.0000    0.0000    0.0000 H   0  0  0  0  0  0  0  0  0  0  0  0
    0.0000    0.0000    0.0000 H   0  0  0  0  0  0  0  0  0  0  0  0
    0.0000    0.0000    0.0000 H   0  0  0  0  0  0  0  0  0  0  0  0
    0.0000    0.0000    0.0000 H   0  0  0  0  0  0  0  0  0  0  0  0
    0.0000    0.0000    0.0000 H   0  0  0  0  0  0  0  0  0  0  0  0
  1  2  1  0
  2  3  1  0
  3  8  2  0
  3  4  1  0
  4  5  2  0
  5  6  1  0
  6  7  2  0
  7  8  1  0
  1  9  1  0
  1 10  1  0
  1 11  1  0
  4 12  1  0
  5 13  1  0
  6 14  1  0
  7 15  1  0
  8 16  1  0
M  END
>  <partial_charges>  (493) 
-0.0540000014007
-0.223800003529
-0.0217000003904
-0.0939000025392
-0.137999996543
-0.11249999702
-0.137999996543
-0.0939000025392
0.0644000023603
0.0644000023603
0.0644000023603
0.140499994159
0.134399995208
0.133000001311
0.134399995208
0.140499994159

>  <partial_bond_orders>  (493) 
1.0
1.0
2.0
1.0
2.0
1.0
2.0
1.0
1.0
1.0
1.0
1.0
1.0
1.0
1.0
1.0

>  <atom_types>  (493) 
c3
ss
ca
ca
ca
ca
ca
ca
h1
h1
h1
ha
ha
ha
ha
ha

>  <target>  (493) 
-2.73

>  <cal>  (493) 
-1.325

$$$$
mobley_8746821
     RDKit          3D

 17 17  0  0  0  0  0  0  0  0999 V2000
    2.8940   -0.2500    3.6320 C   0  0  0  0  0  0  0  0  0  0  0  0
    1.6520   -0.6230    2.9000 C   0  0  0  0  0  0  0  0  0  0  0  0
    1.3880   -0.0680    1.6520 C   0  0  0  0  0  0  0  0  0  0  0  0
    0.2270   -0.4200    0.9730 C   0  0  0  0  0  0  0  0  0  0  0  0
   -0.6320   -1.3220    1.5800 C   0  0  0  0  0  0  0  0  0  0  0  0
   -0.4090   -1.8820    2.7910 N   0  0  0  0  0  0  0  0  0  0  0  0
    0.7300   -1.5160    3.4210 C   0  0  0  0  0  0  0  0  0  0  0  0
    0.9620   -2.1430    4.7560 C   0  0  0  0  0  0  0  0  0  0  0  0
    0.0000    0.0000    0.0000 H   0  0  0  0  0  0  0  0  0  0  0  0
    0.0000    0.0000    0.0000 H   0  0  0  0  0  0  0  0  0  0  0  0
    0.0000    0.0000    0.0000 H   0  0  0  0  0  0  0  0  0  0  0  0
    0.0000    0.0000    0.0000 H   0  0  0  0  0  0  0  0  0  0  0  0
    0.0000    0.0000    0.0000 H   0  0  0  0  0  0  0  0  0  0  0  0
    0.0000    0.0000    0.0000 H   0  0  0  0  0  0  0  0  0  0  0  0
    0.0000    0.0000    0.0000 H   0  0  0  0  0  0  0  0  0  0  0  0
    0.0000    0.0000    0.0000 H   0  0  0  0  0  0  0  0  0  0  0  0
    0.0000    0.0000    0.0000 H   0  0  0  0  0  0  0  0  0  0  0  0
  1  2  1  0
  2  7  2  0
  2  3  1  0
  3  4  2  0
  4  5  1  0
  5  6  2  0
  6  7  1  0
  7  8  1  0
  1  9  1  0
  1 10  1  0
  1 11  1  0
  3 12  1  0
  4 13  1  0
  5 14  1  0
  8 15  1  0
  8 16  1  0
  8 17  1  0
M  END
>  <partial_charges>  (494) 
-0.0500000007451
-0.191499993205
-0.0940999984741
-0.249300003052
0.395700007677
-0.669700026512
0.413899987936
-0.149700000882
0.0460000000894
0.0460000000894
0.0460000000894
0.13560000062
0.142299994826
0.0200999993831
0.0529000014067
0.0529000014067
0.0529000014067

>  <partial_bond_orders>  (494) 
1.0
2.0
1.0
2.0
1.0
2.0
1.0
1.0
1.0
1.0
1.0
1.0
1.0
1.0
1.0
1.0
1.0

>  <atom_types>  (494) 
c3
ca
ca
ca
ca
nb
ca
c3
hc
hc
hc
ha
ha
h4
hc
hc
hc

>  <target>  (494) 
-4.82

>  <cal>  (494) 
-3.367

$$$$
mobley_1903702
     RDKit          3D

 15 14  0  0  1  0  0  0  0  0999 V2000
    0.9780   -0.0330   -0.2360 C   0  0  0  0  0  0  0  0  0  0  0  0
    1.4100    0.6790   -1.5110 C   0  0  0  0  0  0  0  0  0  0  0  0
    0.6390    0.1880   -2.7390 C   0  0  0  0  0  0  0  0  0  0  0  0
    1.0610    0.9420   -3.9930 C   0  0  0  0  0  0  0  0  0  0  0  0
   -0.7550    0.3900   -2.5270 O   0  0  0  0  0  0  0  0  0  0  0  0
    0.0000    0.0000    0.0000 H   0  0  0  0  0  0  0  0  0  0  0  0
    0.0000    0.0000    0.0000 H   0  0  0  0  0  0  0  0  0  0  0  0
    0.0000    0.0000    0.0000 H   0  0  0  0  0  0  0  0  0  0  0  0
    0.0000    0.0000    0.0000 H   0  0  0  0  0  0  0  0  0  0  0  0
    0.0000    0.0000    0.0000 H   0  0  0  0  0  0  0  0  0  0  0  0
    0.0000    0.0000    0.0000 H   0  0  0  0  0  0  0  0  0  0  0  0
    0.0000    0.0000    0.0000 H   0  0  0  0  0  0  0  0  0  0  0  0
    0.0000    0.0000    0.0000 H   0  0  0  0  0  0  0  0  0  0  0  0
    0.0000    0.0000    0.0000 H   0  0  0  0  0  0  0  0  0  0  0  0
    0.0000    0.0000    0.0000 H   0  0  0  0  0  0  0  0  0  0  0  0
  1  2  1  0
  2  3  1  0
  3  4  1  0
  3  5  1  0
  1  6  1  0
  1  7  1  0
  1  8  1  0
  2  9  1  0
  2 10  1  0
  3 11  1  0
  4 12  1  0
  4 13  1  0
  4 14  1  0
  5 15  1  0
M  END
>  <partial_charges>  (495) 
-0.0895999968052
-0.0732000023127
0.138899996877
0.0286999996752
-0.130400002003
-0.598699986935
0.0373999997973
0.0373999997973
0.0373999997973
0.0452000014484
0.0452000014484
0.041700001806
0.041700001806
0.041700001806
0.396800011396

>  <partial_bond_orders>  (495) 
1.0
1.0
1.0
1.0
1.0
1.0
1.0
1.0
1.0
1.0
1.0
1.0
1.0
1.0

>  <atom_types>  (495) 
c3
c3
c3
h1
c3
oh
hc
hc
hc
hc
hc
hc
hc
hc
ho

>  <target>  (495) 
-4.62

>  <cal>  (495) 
-3.145

$$$$
mobley_1231151
     RDKit          3D

 11 10  0  0  0  0  0  0  0  0999 V2000
    0.8650   -0.5430    0.3970 C   0  0  0  0  0  0  0  0  0  0  0  0
    1.0060   -0.3020    1.8930 C   0  0  0  0  0  0  0  0  0  0  0  0
    1.1980    1.1740    2.2080 C   0  0  0  0  0  0  0  0  0  0  0  0
    2.3970   -1.2330    2.5190 Cl  0  0  0  0  0  0  0  0  0  0  0  0
    0.0000    0.0000    0.0000 H   0  0  0  0  0  0  0  0  0  0  0  0
    0.0000    0.0000    0.0000 H   0  0  0  0  0  0  0  0  0  0  0  0
    0.0000    0.0000    0.0000 H   0  0  0  0  0  0  0  0  0  0  0  0
    0.0000    0.0000    0.0000 H   0  0  0  0  0  0  0  0  0  0  0  0
    0.0000    0.0000    0.0000 H   0  0  0  0  0  0  0  0  0  0  0  0
    0.0000    0.0000    0.0000 H   0  0  0  0  0  0  0  0  0  0  0  0
    0.0000    0.0000    0.0000 H   0  0  0  0  0  0  0  0  0  0  0  0
  1  2  1  0
  2  3  1  0
  2  4  1  0
  1  5  1  0
  1  6  1  0
  1  7  1  0
  2  8  1  0
  3  9  1  0
  3 10  1  0
  3 11  1  0
M  END
>  <partial_charges>  (496) 
-0.103900000453
0.0608000010252
-0.103900000453
-0.211799994111
0.0483999997377
0.0483999997377
0.0483999997377
0.068599998951
0.0483999997377
0.0483999997377
0.0483999997377

>  <partial_bond_orders>  (496) 
1.0
1.0
1.0
1.0
1.0
1.0
1.0
1.0
1.0
1.0

>  <atom_types>  (496) 
c3
c3
c3
cl
hc
hc
hc
h1
hc
hc
hc

>  <target>  (496) 
-0.25

>  <cal>  (496) 
0.833

$$$$
mobley_1615431
     RDKit          3D

 21 20  0  0  0  0  0  0  0  0999 V2000
    0.2250   -0.0420    1.7540 C   0  0  0  0  0  0  0  0  0  0  0  0
    1.3530    0.9190    1.4130 C   0  0  0  0  0  0  0  0  0  0  0  0
    2.1170    0.4790    0.1730 C   0  0  0  0  0  0  0  0  0  0  0  0
    0.8120    2.2180    1.1940 O   0  0  0  0  0  0  0  0  0  0  0  0
    1.7300    3.2330    1.5730 C   0  0  0  0  0  0  0  0  0  0  0  0
    1.5290    4.4540    0.6860 C   0  0  0  0  0  0  0  0  0  0  0  0
    1.5330    3.5680    3.0460 C   0  0  0  0  0  0  0  0  0  0  0  0
    0.0000    0.0000    0.0000 H   0  0  0  0  0  0  0  0  0  0  0  0
    0.0000    0.0000    0.0000 H   0  0  0  0  0  0  0  0  0  0  0  0
    0.0000    0.0000    0.0000 H   0  0  0  0  0  0  0  0  0  0  0  0
    0.0000    0.0000    0.0000 H   0  0  0  0  0  0  0  0  0  0  0  0
    0.0000    0.0000    0.0000 H   0  0  0  0  0  0  0  0  0  0  0  0
    0.0000    0.0000    0.0000 H   0  0  0  0  0  0  0  0  0  0  0  0
    0.0000    0.0000    0.0000 H   0  0  0  0  0  0  0  0  0  0  0  0
    0.0000    0.0000    0.0000 H   0  0  0  0  0  0  0  0  0  0  0  0
    0.0000    0.0000    0.0000 H   0  0  0  0  0  0  0  0  0  0  0  0
    0.0000    0.0000    0.0000 H   0  0  0  0  0  0  0  0  0  0  0  0
    0.0000    0.0000    0.0000 H   0  0  0  0  0  0  0  0  0  0  0  0
    0.0000    0.0000    0.0000 H   0  0  0  0  0  0  0  0  0  0  0  0
    0.0000    0.0000    0.0000 H   0  0  0  0  0  0  0  0  0  0  0  0
    0.0000    0.0000    0.0000 H   0  0  0  0  0  0  0  0  0  0  0  0
  1  2  1  0
  2  3  1  0
  2  4  1  0
  4  5  1  0
  5  6  1  0
  5  7  1  0
  1  8  1  0
  1  9  1  0
  1 10  1  0
  2 11  1  0
  3 12  1  0
  3 13  1  0
  3 14  1  0
  5 15  1  0
  6 16  1  0
  6 17  1  0
  6 18  1  0
  7 19  1  0
  7 20  1  0
  7 21  1  0
M  END
>  <partial_charges>  (497) 
-0.106799997389
0.137299999595
-0.106799997389
-0.416900008917
0.137299999595
-0.106799997389
-0.106799997389
0.0419999994338
0.0419999994338
0.0419999994338
0.0328000001609
0.0419999994338
0.0419999994338
0.0419999994338
0.0328000001609
0.0419999994338
0.0419999994338
0.0419999994338
0.0419999994338
0.0419999994338
0.0419999994338

>  <partial_bond_orders>  (497) 
1.0
1.0
1.0
1.0
1.0
1.0
1.0
1.0
1.0
1.0
1.0
1.0
1.0
1.0
1.0
1.0
1.0
1.0
1.0
1.0

>  <atom_types>  (497) 
c3
c3
c3
os
c3
c3
c3
hc
hc
hc
h1
hc
hc
hc
h1
hc
hc
hc
hc
hc
hc

>  <target>  (497) 
-0.53

>  <cal>  (497) 
-0.178

$$$$
mobley_1571523
     RDKit          3D

 19 19  0  0  0  0  0  0  0  0999 V2000
    1.9550   -1.0270   -1.6040 C   0  0  0  0  0  0  0  0  0  0  0  0
    1.8850   -1.0360   -0.1120 C   0  0  0  0  0  0  0  0  0  0  0  0
    2.9210   -1.6310    0.6080 C   0  0  0  0  0  0  0  0  0  0  0  0
    2.8780   -1.6520    2.0020 C   0  0  0  0  0  0  0  0  0  0  0  0
    1.8000   -1.0790    2.6760 C   0  0  0  0  0  0  0  0  0  0  0  0
    0.7640   -0.4840    1.9550 C   0  0  0  0  0  0  0  0  0  0  0  0
    0.8070   -0.4630    0.5610 C   0  0  0  0  0  0  0  0  0  0  0  0
   -0.3070    0.1740   -0.2070 C   0  0  0  0  0  0  0  0  0  0  0  0
   -0.2820    0.0700    2.6310 O   0  0  0  0  0  0  0  0  0  0  0  0
    0.0000    0.0000    0.0000 H   0  0  0  0  0  0  0  0  0  0  0  0
    0.0000    0.0000    0.0000 H   0  0  0  0  0  0  0  0  0  0  0  0
    0.0000    0.0000    0.0000 H   0  0  0  0  0  0  0  0  0  0  0  0
    0.0000    0.0000    0.0000 H   0  0  0  0  0  0  0  0  0  0  0  0
    0.0000    0.0000    0.0000 H   0  0  0  0  0  0  0  0  0  0  0  0
    0.0000    0.0000    0.0000 H   0  0  0  0  0  0  0  0  0  0  0  0
    0.0000    0.0000    0.0000 H   0  0  0  0  0  0  0  0  0  0  0  0
    0.0000    0.0000    0.0000 H   0  0  0  0  0  0  0  0  0  0  0  0
    0.0000    0.0000    0.0000 H   0  0  0  0  0  0  0  0  0  0  0  0
    0.0000    0.0000    0.0000 H   0  0  0  0  0  0  0  0  0  0  0  0
  1  2  1  0
  2  7  2  0
  2  3  1  0
  3  4  2  0
  4  5  1  0
  5  6  2  0
  6  7  1  0
  7  8  1  0
  6  9  1  0
  1 10  1  0
  1 11  1  0
  1 12  1  0
  3 13  1  0
  4 14  1  0
  5 15  1  0
  8 16  1  0
  8 17  1  0
  8 18  1  0
  9 19  1  0
M  END
>  <partial_charges>  (498) 
-0.055799998343
-0.0450000017881
-0.16210000217
-0.0935000032187
-0.215000003576
0.122800000012
-0.0983000025153
-0.0458000004292
-0.500500023365
0.0460000000894
0.0460000000894
0.0460000000894
0.13220000267
0.131799995899
0.130999997258
0.047499999404
0.047499999404
0.047499999404
0.417899996042

>  <partial_bond_orders>  (498) 
1.0
2.0
1.0
2.0
1.0
2.0
1.0
1.0
1.0
1.0
1.0
1.0
1.0
1.0
1.0
1.0
1.0
1.0
1.0

>  <atom_types>  (498) 
c3
ca
ca
ca
ca
ca
ca
c3
oh
hc
hc
hc
ha
ha
ha
hc
hc
hc
ho

>  <target>  (498) 
-6.16

>  <cal>  (498) 
-5.148

$$$$
mobley_5935995
     RDKit          3D

 20 19  0  0  0  0  0  0  0  0999 V2000
   -0.7780    2.0420   -1.2640 C   0  0  0  0  0  0  0  0  0  0  0  0
    0.6590    1.9010   -0.7750 C   0  0  0  0  0  0  0  0  0  0  0  0
    1.7370    2.6050   -1.6380 C   0  0  0  0  0  0  0  0  0  0  0  0
    1.4190    4.1120   -1.6700 C   0  0  0  0  0  0  0  0  0  0  0  0
    1.7280    2.0730   -3.0800 C   0  0  0  0  0  0  0  0  0  0  0  0
    3.1400    2.4150   -1.0370 C   0  0  0  0  0  0  0  0  0  0  0  0
    0.0000    0.0000    0.0000 H   0  0  0  0  0  0  0  0  0  0  0  0
    0.0000    0.0000    0.0000 H   0  0  0  0  0  0  0  0  0  0  0  0
    0.0000    0.0000    0.0000 H   0  0  0  0  0  0  0  0  0  0  0  0
    0.0000    0.0000    0.0000 H   0  0  0  0  0  0  0  0  0  0  0  0
    0.0000    0.0000    0.0000 H   0  0  0  0  0  0  0  0  0  0  0  0
    0.0000    0.0000    0.0000 H   0  0  0  0  0  0  0  0  0  0  0  0
    0.0000    0.0000    0.0000 H   0  0  0  0  0  0  0  0  0  0  0  0
    0.0000    0.0000    0.0000 H   0  0  0  0  0  0  0  0  0  0  0  0
    0.0000    0.0000    0.0000 H   0  0  0  0  0  0  0  0  0  0  0  0
    0.0000    0.0000    0.0000 H   0  0  0  0  0  0  0  0  0  0  0  0
    0.0000    0.0000    0.0000 H   0  0  0  0  0  0  0  0  0  0  0  0
    0.0000    0.0000    0.0000 H   0  0  0  0  0  0  0  0  0  0  0  0
    0.0000    0.0000    0.0000 H   0  0  0  0  0  0  0  0  0  0  0  0
    0.0000    0.0000    0.0000 H   0  0  0  0  0  0  0  0  0  0  0  0
  1  2  1  0
  2  3  1  0
  3  4  1  0
  3  5  1  0
  3  6  1  0
  1  7  1  0
  1  8  1  0
  1  9  1  0
  2 10  1  0
  2 11  1  0
  4 12  1  0
  4 13  1  0
  4 14  1  0
  5 15  1  0
  5 16  1  0
  5 17  1  0
  6 18  1  0
  6 19  1  0
  6 20  1  0
M  END
>  <partial_charges>  (499) 
-0.0921000018716
-0.0705000013113
-0.0557000003755
-0.0856000036001
-0.0856000036001
-0.0856000036001
0.0329999998212
0.0329999998212
0.0329999998212
0.0373999997973
0.0373999997973
0.0335000008345
0.0335000008345
0.0335000008345
0.0335000008345
0.0335000008345
0.0335000008345
0.0335000008345
0.0335000008345
0.0335000008345

>  <partial_bond_orders>  (499) 
1.0
1.0
1.0
1.0
1.0
1.0
1.0
1.0
1.0
1.0
1.0
1.0
1.0
1.0
1.0
1.0
1.0
1.0
1.0

>  <atom_types>  (499) 
c3
c3
c3
c3
c3
c3
hc
hc
hc
hc
hc
hc
hc
hc
hc
hc
hc
hc
hc
hc

>  <target>  (499) 
2.51

>  <cal>  (499) 
2.495

$$$$
mobley_3395921
     RDKit          3D

 16 16  0  0  0  0  0  0  0  0999 V2000
    0.7970    0.5590   -1.1110 C   0  0  0  0  0  0  0  0  0  0  0  0
    0.8160   -0.9270   -0.7670 C   0  0  0  0  0  0  0  0  0  0  0  0
   -0.4770   -1.3370   -0.0740 C   0  0  0  0  0  0  0  0  0  0  0  0
   -0.7070   -0.5330    1.0830 O   0  0  0  0  0  0  0  0  0  0  0  0
   -0.8500    0.8500    0.7580 C   0  0  0  0  0  0  0  0  0  0  0  0
    0.4210    1.3870    0.1130 C   0  0  0  0  0  0  0  0  0  0  0  0
    0.0000    0.0000    0.0000 H   0  0  0  0  0  0  0  0  0  0  0  0
    0.0000    0.0000    0.0000 H   0  0  0  0  0  0  0  0  0  0  0  0
    0.0000    0.0000    0.0000 H   0  0  0  0  0  0  0  0  0  0  0  0
    0.0000    0.0000    0.0000 H   0  0  0  0  0  0  0  0  0  0  0  0
    0.0000    0.0000    0.0000 H   0  0  0  0  0  0  0  0  0  0  0  0
    0.0000    0.0000    0.0000 H   0  0  0  0  0  0  0  0  0  0  0  0
    0.0000    0.0000    0.0000 H   0  0  0  0  0  0  0  0  0  0  0  0
    0.0000    0.0000    0.0000 H   0  0  0  0  0  0  0  0  0  0  0  0
    0.0000    0.0000    0.0000 H   0  0  0  0  0  0  0  0  0  0  0  0
    0.0000    0.0000    0.0000 H   0  0  0  0  0  0  0  0  0  0  0  0
  1  6  1  0
  1  2  1  0
  2  3  1  0
  3  4  1  0
  4  5  1  0
  5  6  1  0
  1  7  1  0
  1  8  1  0
  2  9  1  0
  2 10  1  0
  3 11  1  0
  3 12  1  0
  5 13  1  0
  5 14  1  0
  6 15  1  0
  6 16  1  0
M  END
>  <partial_charges>  (500) 
-0.0768000036478
-0.11249999702
0.126100003719
-0.414700001478
0.126100003719
-0.11249999702
0.0417999997735
0.0417999997735
0.0498000010848
0.0498000010848
0.0454000011086
0.0454000011086
0.0454000011086
0.0454000011086
0.0498000010848
0.0498000010848

>  <partial_bond_orders>  (500) 
1.0
1.0
1.0
1.0
1.0
1.0
1.0
1.0
1.0
1.0
1.0
1.0
1.0
1.0
1.0
1.0

>  <atom_types>  (500) 
c3
c3
c3
os
c3
c3
hc
hc
hc
hc
h1
h1
h1
h1
hc
hc

>  <target>  (500) 
-3.12

>  <cal>  (500) 
-1.809

$$$$
mobley_7608462
     RDKit          3D

 12 12  0  0  0  0  0  0  0  0999 V2000
    1.8850   -1.0360   -0.1120 C   0  0  0  0  0  0  0  0  0  0  0  0
    2.9210   -1.6310    0.6080 C   0  0  0  0  0  0  0  0  0  0  0  0
    2.8780   -1.6520    2.0020 C   0  0  0  0  0  0  0  0  0  0  0  0
    1.8000   -1.0790    2.6760 C   0  0  0  0  0  0  0  0  0  0  0  0
    0.7640   -0.4840    1.9550 C   0  0  0  0  0  0  0  0  0  0  0  0
    0.8070   -0.4630    0.5610 C   0  0  0  0  0  0  0  0  0  0  0  0
    1.7480   -1.1040    4.3960 Cl  0  0  0  0  0  0  0  0  0  0  0  0
    0.0000    0.0000    0.0000 H   0  0  0  0  0  0  0  0  0  0  0  0
    0.0000    0.0000    0.0000 H   0  0  0  0  0  0  0  0  0  0  0  0
    0.0000    0.0000    0.0000 H   0  0  0  0  0  0  0  0  0  0  0  0
    0.0000    0.0000    0.0000 H   0  0  0  0  0  0  0  0  0  0  0  0
    0.0000    0.0000    0.0000 H   0  0  0  0  0  0  0  0  0  0  0  0
  1  6  2  0
  1  2  1  0
  2  3  2  0
  3  4  1  0
  4  5  2  0
  5  6  1  0
  4  7  1  0
  1  8  1  0
  2  9  1  0
  3 10  1  0
  5 11  1  0
  6 12  1  0
M  END
>  <partial_charges>  (501) 
-0.129399999976
-0.121799997985
-0.124499998987
0.0176999997348
-0.124499998987
-0.121799997985
-0.0973000004888
0.135299995542
0.136700004339
0.146500006318
0.146500006318
0.136700004339

>  <partial_bond_orders>  (501) 
2.0
1.0
2.0
1.0
2.0
1.0
1.0
1.0
1.0
1.0
1.0
1.0

>  <atom_types>  (501) 
ca
ca
ca
ca
ca
ca
cl
ha
ha
ha
ha
ha

>  <target>  (501) 
-1.12

>  <cal>  (501) 
-0.475

$$$$
mobley_4218209
     RDKit          3D

 18 18  0  0  0  0  0  0  0  0999 V2000
    0.8350   -0.3920   -2.1380 C   0  0  0  0  0  0  0  0  0  0  0  0
    1.9270   -1.0160   -1.4730 O   0  0  0  0  0  0  0  0  0  0  0  0
    1.8850   -1.0360   -0.1120 C   0  0  0  0  0  0  0  0  0  0  0  0
    2.9210   -1.6310    0.6080 C   0  0  0  0  0  0  0  0  0  0  0  0
    2.8780   -1.6520    2.0020 C   0  0  0  0  0  0  0  0  0  0  0  0
    1.8000   -1.0790    2.6760 C   0  0  0  0  0  0  0  0  0  0  0  0
    0.7640   -0.4840    1.9550 C   0  0  0  0  0  0  0  0  0  0  0  0
    0.8070   -0.4630    0.5610 C   0  0  0  0  0  0  0  0  0  0  0  0
    1.7560   -1.1000    4.0850 N   0  0  0  0  0  0  0  0  0  0  0  0
    0.0000    0.0000    0.0000 H   0  0  0  0  0  0  0  0  0  0  0  0
    0.0000    0.0000    0.0000 H   0  0  0  0  0  0  0  0  0  0  0  0
    0.0000    0.0000    0.0000 H   0  0  0  0  0  0  0  0  0  0  0  0
    0.0000    0.0000    0.0000 H   0  0  0  0  0  0  0  0  0  0  0  0
    0.0000    0.0000    0.0000 H   0  0  0  0  0  0  0  0  0  0  0  0
    0.0000    0.0000    0.0000 H   0  0  0  0  0  0  0  0  0  0  0  0
    0.0000    0.0000    0.0000 H   0  0  0  0  0  0  0  0  0  0  0  0
    0.0000    0.0000    0.0000 H   0  0  0  0  0  0  0  0  0  0  0  0
    0.0000    0.0000    0.0000 H   0  0  0  0  0  0  0  0  0  0  0  0
  1  2  1  0
  2  3  1  0
  3  8  2  0
  3  4  1  0
  4  5  2  0
  5  6  1  0
  6  7  2  0
  7  8  1  0
  6  9  1  0
  1 10  1  0
  1 11  1  0
  1 12  1  0
  4 13  1  0
  5 14  1  0
  7 15  1  0
  8 16  1  0
  9 17  1  0
  9 18  1  0
M  END
>  <partial_charges>  (502) 
0.111699998379
-0.325300008059
0.0817999988794
-0.143500000238
-0.154599994421
0.0957000032067
-0.154599994421
-0.143500000238
-0.80529999733
0.0425999984145
0.0425999984145
0.0425999984145
0.141599997878
0.133599996567
0.133599996567
0.141599997878
0.379599988461
0.379599988461

>  <partial_bond_orders>  (502) 
1.0
1.0
2.0
1.0
2.0
1.0
2.0
1.0
1.0
1.0
1.0
1.0
1.0
1.0
1.0
1.0
1.0
1.0

>  <atom_types>  (502) 
c3
os
ca
ca
ca
ca
ca
ca
nh
h1
h1
h1
ha
ha
ha
ha
hn
hn

>  <target>  (502) 
-7.48

>  <cal>  (502) 
-7.016

$$$$
mobley_8966374
     RDKit          3D

 13 13  0  0  0  0  0  0  0  0999 V2000
    0.0880    0.3940   -0.0550 C   0  0  0  0  0  0  0  0  0  0  0  0
   -0.3210   -1.0180    0.1820 C   0  0  0  0  0  0  0  0  0  0  0  0
   -1.5570   -1.3070    0.7170 C   0  0  0  0  0  0  0  0  0  0  0  0
   -1.9570   -2.5740    0.9450 N   0  0  0  0  0  0  0  0  0  0  0  0
   -1.0770   -3.5410    0.6190 C   0  0  0  0  0  0  0  0  0  0  0  0
    0.1590   -3.2520    0.0830 C   0  0  0  0  0  0  0  0  0  0  0  0
    0.5590   -1.9850   -0.1440 N   0  0  0  0  0  0  0  0  0  0  0  0
    0.0000    0.0000    0.0000 H   0  0  0  0  0  0  0  0  0  0  0  0
    0.0000    0.0000    0.0000 H   0  0  0  0  0  0  0  0  0  0  0  0
    0.0000    0.0000    0.0000 H   0  0  0  0  0  0  0  0  0  0  0  0
    0.0000    0.0000    0.0000 H   0  0  0  0  0  0  0  0  0  0  0  0
    0.0000    0.0000    0.0000 H   0  0  0  0  0  0  0  0  0  0  0  0
    0.0000    0.0000    0.0000 H   0  0  0  0  0  0  0  0  0  0  0  0
  1  2  1  0
  2  7  2  0
  2  3  1  0
  3  4  2  0
  4  5  1  0
  5  6  2  0
  6  7  1  0
  1  8  1  0
  1  9  1  0
  1 10  1  0
  3 11  1  0
  5 12  1  0
  6 13  1  0
M  END
>  <partial_charges>  (503) 
-0.147699996829
0.301200002432
0.277300000191
-0.625599980354
0.271499991417
0.287800014019
-0.635900020599
0.0573000013828
0.0573000013828
0.0573000013828
0.0329999998212
0.0335999988019
0.033100001514

>  <partial_bond_orders>  (503) 
1.0
2.0
1.0
2.0
1.0
2.0
1.0
1.0
1.0
1.0
1.0
1.0
1.0

>  <atom_types>  (503) 
c3
ca
ca
nb
ca
ca
nb
hc
hc
hc
h4
h4
h4

>  <target>  (503) 
-5.51

>  <cal>  (503) 
-6.161

$$$$
mobley_6248915
     RDKit          3D

 28 27  0  0  0  0  0  0  0  0999 V2000
    4.0830   -1.0330    3.7440 C   0  0  0  0  0  0  0  0  0  0  0  0
    3.4620   -0.0560    2.7590 C   0  0  0  0  0  0  0  0  0  0  0  0
    4.4960    0.4650    1.7600 C   0  0  0  0  0  0  0  0  0  0  0  0
    3.8640    1.4480    0.7710 C   0  0  0  0  0  0  0  0  0  0  0  0
    4.8560    2.0030   -0.2560 C   0  0  0  0  0  0  0  0  0  0  0  0
    4.2830    2.9940   -1.2740 C   0  0  0  0  0  0  0  0  0  0  0  0
    5.3230    3.5130   -2.2720 C   0  0  0  0  0  0  0  0  0  0  0  0
    4.7300    4.4970   -3.2760 C   0  0  0  0  0  0  0  0  0  0  0  0
    5.7060    4.9830   -4.2120 N   0  0  0  0  0  0  0  0  0  0  0  0
    0.0000    0.0000    0.0000 H   0  0  0  0  0  0  0  0  0  0  0  0
    0.0000    0.0000    0.0000 H   0  0  0  0  0  0  0  0  0  0  0  0
    0.0000    0.0000    0.0000 H   0  0  0  0  0  0  0  0  0  0  0  0
    0.0000    0.0000    0.0000 H   0  0  0  0  0  0  0  0  0  0  0  0
    0.0000    0.0000    0.0000 H   0  0  0  0  0  0  0  0  0  0  0  0
    0.0000    0.0000    0.0000 H   0  0  0  0  0  0  0  0  0  0  0  0
    0.0000    0.0000    0.0000 H   0  0  0  0  0  0  0  0  0  0  0  0
    0.0000    0.0000    0.0000 H   0  0  0  0  0  0  0  0  0  0  0  0
    0.0000    0.0000    0.0000 H   0  0  0  0  0  0  0  0  0  0  0  0
    0.0000    0.0000    0.0000 H   0  0  0  0  0  0  0  0  0  0  0  0
    0.0000    0.0000    0.0000 H   0  0  0  0  0  0  0  0  0  0  0  0
    0.0000    0.0000    0.0000 H   0  0  0  0  0  0  0  0  0  0  0  0
    0.0000    0.0000    0.0000 H   0  0  0  0  0  0  0  0  0  0  0  0
    0.0000    0.0000    0.0000 H   0  0  0  0  0  0  0  0  0  0  0  0
    0.0000    0.0000    0.0000 H   0  0  0  0  0  0  0  0  0  0  0  0
    0.0000    0.0000    0.0000 H   0  0  0  0  0  0  0  0  0  0  0  0
    0.0000    0.0000    0.0000 H   0  0  0  0  0  0  0  0  0  0  0  0
    0.0000    0.0000    0.0000 H   0  0  0  0  0  0  0  0  0  0  0  0
    0.0000    0.0000    0.0000 H   0  0  0  0  0  0  0  0  0  0  0  0
  1  2  1  0
  2  3  1  0
  3  4  1  0
  4  5  1  0
  5  6  1  0
  6  7  1  0
  7  8  1  0
  8  9  1  0
  1 10  1  0
  1 11  1  0
  1 12  1  0
  2 13  1  0
  2 14  1  0
  3 15  1  0
  3 16  1  0
  4 17  1  0
  4 18  1  0
  5 19  1  0
  5 20  1  0
  6 21  1  0
  6 22  1  0
  7 23  1  0
  7 24  1  0
  8 25  1  0
  8 26  1  0
  9 27  1  0
  9 28  1  0
M  END
>  <partial_charges>  (504) 
-0.0913999974728
-0.0791999995708
-0.0780000016093
-0.0776000022888
-0.0791999995708
-0.0740000009537
-0.122199997306
0.152400001884
-0.909399986267
0.0329999998212
0.0329999998212
0.0329999998212
0.0377000011504
0.0377000011504
0.0383000001311
0.0383000001311
0.0392999984324
0.0392999984324
0.0384000018239
0.0384000018239
0.041400000453
0.041400000453
0.0379000008106
0.0379000008106
0.0513999983668
0.0513999983668
0.345200002193
0.345200002193

>  <partial_bond_orders>  (504) 
1.0
1.0
1.0
1.0
1.0
1.0
1.0
1.0
1.0
1.0
1.0
1.0
1.0
1.0
1.0
1.0
1.0
1.0
1.0
1.0
1.0
1.0
1.0
1.0
1.0
1.0
1.0

>  <atom_types>  (504) 
c3
c3
c3
c3
c3
c3
c3
c3
n3
hc
hc
hc
hc
hc
hc
hc
hc
hc
hc
hc
hc
hc
hc
hc
h1
h1
hn
hn

>  <target>  (504) 
-3.65

>  <cal>  (504) 
-2.589

$$$$
mobley_9571888
     RDKit          3D

 25 27  0  0  1  0  0  0  0  0999 V2000
    2.0220    0.4850    0.3570 C   0  0  0  0  0  0  0  0  0  0  0  0
    0.7980   -0.3930    0.6390 C   0  0  0  0  0  0  0  0  0  0  0  0
   -0.0180   -0.9030   -0.6190 C   0  0  0  0  0  0  0  0  0  0  0  0
    0.4940   -0.4700   -1.9960 C   0  0  0  0  0  0  0  0  0  0  0  0
    1.7650   -1.0670   -2.2510 O   0  0  0  0  0  0  0  0  0  0  0  0
    3.0450   -0.1460   -1.9180 S   0  0  0  0  0  0  0  0  0  0  0  0
    4.2590   -0.8760   -2.4100 O   0  0  0  0  0  0  0  0  0  0  0  0
    3.0240   -0.2810   -0.3120 O   0  0  0  0  0  0  0  0  0  0  0  0
   -1.4800   -0.4440   -0.2730 C   0  0  0  0  0  0  0  0  0  0  0  0
   -1.5000    1.0720   -0.3050 C   0  0  0  0  0  0  0  0  0  0  0  0
   -0.8090    1.5040    0.7580 C   0  0  0  0  0  0  0  0  0  0  0  0
   -0.3220    0.2800    1.5090 C   0  0  0  0  0  0  0  0  0  0  0  0
   -1.5450   -0.6610    1.2720 C   0  0  0  0  0  0  0  0  0  0  0  0
   -1.3070   -2.3560    1.8060 Cl  0  0  0  0  0  0  0  0  0  0  0  0
   -3.0790   -0.0990    2.0400 Cl  0  0  0  0  0  0  0  0  0  0  0  0
    0.1100    0.5160    3.1920 Cl  0  0  0  0  0  0  0  0  0  0  0  0
   -0.4790    3.1020    1.2080 Cl  0  0  0  0  0  0  0  0  0  0  0  0
   -2.2450    1.9970   -1.5110 Cl  0  0  0  0  0  0  0  0  0  0  0  0
   -2.7330   -1.2630   -1.1850 Cl  0  0  0  0  0  0  0  0  0  0  0  0
    0.0000    0.0000    0.0000 H   0  0  0  0  0  0  0  0  0  0  0  0
    0.0000    0.0000    0.0000 H   0  0  0  0  0  0  0  0  0  0  0  0
    0.0000    0.0000    0.0000 H   0  0  0  0  0  0  0  0  0  0  0  0
    0.0000    0.0000    0.0000 H   0  0  0  0  0  0  0  0  0  0  0  0
    0.0000    0.0000    0.0000 H   0  0  0  0  0  0  0  0  0  0  0  0
    0.0000    0.0000    0.0000 H   0  0  0  0  0  0  0  0  0  0  0  0
  1  8  1  0
  1  2  1  0
  2 12  1  0
  2  3  1  0
  3  4  1  0
  4  5  1  0
  5  6  1  0
  6  7  2  0
  6  8  1  0
  3  9  1  0
  9 13  1  0
  9 10  1  0
 10 11  2  0
 11 12  1  0
 12 13  1  0
 13 14  1  0
 13 15  1  0
 12 16  1  0
 11 17  1  0
 10 18  1  0
  9 19  1  0
  1 20  1  0
  1 21  1  0
  2 22  1  0
  3 23  1  0
  4 24  1  0
  4 25  1  0
M  END
>  <partial_charges>  (505) 
0.161899998784
-0.101300001144
0.111100003123
-0.101300001144
0.111100003123
0.161899998784
-0.396600008011
0.792500019073
-0.43900001049
-0.396600008011
0.0784000009298
-0.0390999987721
-0.0390999987721
0.0784000009298
0.135000005364
-0.0854000002146
-0.0854000002146
-0.0715000033379
-0.00740000000224
-0.00740000000224
-0.0715000033379
0.0529000014067
0.0529000014067
0.0529000014067
0.0529000014067

>  <partial_bond_orders>  (505) 
1.0
1.0
1.0
1.0
1.0
1.0
1.0
1.0
1.0
2.0
1.0
1.0
1.0
1.0
2.0
1.0
1.0
1.0
1.0
1.0
1.0
1.0
1.0
1.0
1.0
1.0
1.0

>  <atom_types>  (505) 
c3
c3
hc
c3
hc
c3
os
s4
o
os
c3
c2
c2
c3
c3
cl
cl
cl
cl
cl
cl
h1
h1
h1
h1

>  <target>  (505) 
-4.23

>  <cal>  (505) 
-9.785

$$$$
mobley_8764620
     RDKit          3D

 12 12  0  0  0  0  0  0  0  0999 V2000
    1.6520   -0.6230    2.9000 C   0  0  0  0  0  0  0  0  0  0  0  0
    1.3880   -0.0680    1.6520 C   0  0  0  0  0  0  0  0  0  0  0  0
    0.2270   -0.4200    0.9730 C   0  0  0  0  0  0  0  0  0  0  0  0
   -0.6320   -1.3220    1.5800 C   0  0  0  0  0  0  0  0  0  0  0  0
   -0.4090   -1.8820    2.7910 N   0  0  0  0  0  0  0  0  0  0  0  0
    0.7300   -1.5160    3.4210 C   0  0  0  0  0  0  0  0  0  0  0  0
   -0.0720    0.1330   -0.3080 C   0  0  0  0  0  0  0  0  0  0  0  0
   -0.3160    0.5830   -1.3530 N   0  0  0  0  0  0  0  0  0  0  0  0
    0.0000    0.0000    0.0000 H   0  0  0  0  0  0  0  0  0  0  0  0
    0.0000    0.0000    0.0000 H   0  0  0  0  0  0  0  0  0  0  0  0
    0.0000    0.0000    0.0000 H   0  0  0  0  0  0  0  0  0  0  0  0
    0.0000    0.0000    0.0000 H   0  0  0  0  0  0  0  0  0  0  0  0
  1  6  2  0
  1  2  1  0
  2  3  2  0
  3  4  1  0
  4  5  2  0
  5  6  1  0
  3  7  1  0
  7  8  3  0
  1  9  1  0
  2 10  1  0
  4 11  1  0
  6 12  1  0
M  END
>  <partial_charges>  (506) 
-0.249500006437
-0.0562000013888
-0.135900005698
0.436300009489
-0.664300024509
0.415899991989
0.234999999404
-0.351799994707
0.15379999578
0.150800004601
0.0366000011563
0.0294000003487

>  <partial_bond_orders>  (506) 
2.0
1.0
2.0
1.0
2.0
1.0
1.0
3.0
1.0
1.0
1.0
1.0

>  <atom_types>  (506) 
ca
ca
ca
ca
nb
ca
cg
n1
ha
ha
h4
h4

>  <target>  (506) 
-6.75

>  <cal>  (506) 
-5.582

$$$$
mobley_3525176
     RDKit          3D

 27 27  0  0  0  0  0  0  0  0999 V2000
   -0.8980    3.6490   -2.4910 C   0  0  0  0  0  0  0  0  0  0  0  0
   -0.8410    2.1940   -2.9280 C   0  0  0  0  0  0  0  0  0  0  0  0
   -0.0260    2.0260   -4.2110 C   0  0  0  0  0  0  0  0  0  0  0  0
    0.0280    0.5580   -4.6460 C   0  0  0  0  0  0  0  0  0  0  0  0
    0.8340    0.3370   -5.9300 C   0  0  0  0  0  0  0  0  0  0  0  0
    0.8890   -1.0980   -6.3590 C   0  0  0  0  0  0  0  0  0  0  0  0
    1.9170   -1.9230   -5.9020 C   0  0  0  0  0  0  0  0  0  0  0  0
    1.9690   -3.2580   -6.3020 C   0  0  0  0  0  0  0  0  0  0  0  0
    0.9940   -3.7680   -7.1580 C   0  0  0  0  0  0  0  0  0  0  0  0
   -0.0350   -2.9430   -7.6140 C   0  0  0  0  0  0  0  0  0  0  0  0
   -0.0870   -1.6080   -7.2150 C   0  0  0  0  0  0  0  0  0  0  0  0
    0.0000    0.0000    0.0000 H   0  0  0  0  0  0  0  0  0  0  0  0
    0.0000    0.0000    0.0000 H   0  0  0  0  0  0  0  0  0  0  0  0
    0.0000    0.0000    0.0000 H   0  0  0  0  0  0  0  0  0  0  0  0
    0.0000    0.0000    0.0000 H   0  0  0  0  0  0  0  0  0  0  0  0
    0.0000    0.0000    0.0000 H   0  0  0  0  0  0  0  0  0  0  0  0
    0.0000    0.0000    0.0000 H   0  0  0  0  0  0  0  0  0  0  0  0
    0.0000    0.0000    0.0000 H   0  0  0  0  0  0  0  0  0  0  0  0
    0.0000    0.0000    0.0000 H   0  0  0  0  0  0  0  0  0  0  0  0
    0.0000    0.0000    0.0000 H   0  0  0  0  0  0  0  0  0  0  0  0
    0.0000    0.0000    0.0000 H   0  0  0  0  0  0  0  0  0  0  0  0
    0.0000    0.0000    0.0000 H   0  0  0  0  0  0  0  0  0  0  0  0
    0.0000    0.0000    0.0000 H   0  0  0  0  0  0  0  0  0  0  0  0
    0.0000    0.0000    0.0000 H   0  0  0  0  0  0  0  0  0  0  0  0
    0.0000    0.0000    0.0000 H   0  0  0  0  0  0  0  0  0  0  0  0
    0.0000    0.0000    0.0000 H   0  0  0  0  0  0  0  0  0  0  0  0
    0.0000    0.0000    0.0000 H   0  0  0  0  0  0  0  0  0  0  0  0
  1  2  1  0
  2  3  1  0
  3  4  1  0
  4  5  1  0
  5  6  1  0
  6 11  2  0
  6  7  1  0
  7  8  2  0
  8  9  1  0
  9 10  2  0
 10 11  1  0
  1 12  1  0
  1 13  1  0
  1 14  1  0
  2 15  1  0
  2 16  1  0
  3 17  1  0
  3 18  1  0
  4 19  1  0
  4 20  1  0
  5 21  1  0
  5 22  1  0
  7 23  1  0
  8 24  1  0
  9 25  1  0
 10 26  1  0
 11 27  1  0
M  END
>  <partial_charges>  (507) 
-0.0920000001788
-0.0800999999046
-0.0785000026226
-0.0754000023007
-0.0355000011623
-0.0777999982238
-0.127900004387
-0.12839999795
-0.132499992847
-0.12839999795
-0.127900004387
0.0331999994814
0.0331999994814
0.0331999994814
0.0388999991119
0.0388999991119
0.0384999997914
0.0384999997914
0.0430000014603
0.0430000014603
0.0465000011027
0.0465000011027
0.130500003695
0.129899993539
0.130400002003
0.129899993539
0.130500003695

>  <partial_bond_orders>  (507) 
1.0
1.0
1.0
1.0
1.0
2.0
1.0
2.0
1.0
2.0
1.0
1.0
1.0
1.0
1.0
1.0
1.0
1.0
1.0
1.0
1.0
1.0
1.0
1.0
1.0
1.0
1.0

>  <atom_types>  (507) 
c3
c3
c3
c3
c3
ca
ca
ca
ca
ca
ca
hc
hc
hc
hc
hc
hc
hc
hc
hc
hc
hc
ha
ha
ha
ha
ha

>  <target>  (507) 
-0.23

>  <cal>  (507) 
-0.094

$$$$
mobley_3144334
     RDKit          3D

 19 19  0  0  0  0  0  0  0  0999 V2000
    1.9320   -1.0130   -1.6030 C   0  0  0  0  0  0  0  0  0  0  0  0
    1.8850   -1.0360   -0.1120 C   0  0  0  0  0  0  0  0  0  0  0  0
    2.9210   -1.6310    0.6080 C   0  0  0  0  0  0  0  0  0  0  0  0
    2.8780   -1.6520    2.0020 C   0  0  0  0  0  0  0  0  0  0  0  0
    1.8000   -1.0790    2.6760 C   0  0  0  0  0  0  0  0  0  0  0  0
    0.7640   -0.4840    1.9550 C   0  0  0  0  0  0  0  0  0  0  0  0
    0.8070   -0.4630    0.5610 C   0  0  0  0  0  0  0  0  0  0  0  0
   -0.2970    0.0810    2.5970 O   0  0  0  0  0  0  0  0  0  0  0  0
    1.7700   -1.1110    4.1680 C   0  0  0  0  0  0  0  0  0  0  0  0
    0.0000    0.0000    0.0000 H   0  0  0  0  0  0  0  0  0  0  0  0
    0.0000    0.0000    0.0000 H   0  0  0  0  0  0  0  0  0  0  0  0
    0.0000    0.0000    0.0000 H   0  0  0  0  0  0  0  0  0  0  0  0
    0.0000    0.0000    0.0000 H   0  0  0  0  0  0  0  0  0  0  0  0
    0.0000    0.0000    0.0000 H   0  0  0  0  0  0  0  0  0  0  0  0
    0.0000    0.0000    0.0000 H   0  0  0  0  0  0  0  0  0  0  0  0
    0.0000    0.0000    0.0000 H   0  0  0  0  0  0  0  0  0  0  0  0
    0.0000    0.0000    0.0000 H   0  0  0  0  0  0  0  0  0  0  0  0
    0.0000    0.0000    0.0000 H   0  0  0  0  0  0  0  0  0  0  0  0
    0.0000    0.0000    0.0000 H   0  0  0  0  0  0  0  0  0  0  0  0
  1  2  1  0
  2  7  2  0
  2  3  1  0
  3  4  2  0
  4  5  1  0
  5  6  2  0
  6  7  1  0
  6  8  1  0
  5  9  1  0
  1 10  1  0
  1 11  1  0
  1 12  1  0
  3 13  1  0
  4 14  1  0
  7 15  1  0
  8 16  1  0
  9 17  1  0
  9 18  1  0
  9 19  1  0
M  END
>  <partial_charges>  (508) 
-0.0562999993563
-0.0434000007808
-0.16099999845
-0.0983000025153
-0.103500001132
0.125400006771
-0.212099999189
-0.499500006437
-0.0436999984086
0.0450999997556
0.0450999997556
0.0450999997556
0.133100003004
0.133499994874
0.132400006056
0.417600005865
0.0469000004232
0.0469000004232
0.0469000004232

>  <partial_bond_orders>  (508) 
1.0
2.0
1.0
2.0
1.0
2.0
1.0
1.0
1.0
1.0
1.0
1.0
1.0
1.0
1.0
1.0
1.0
1.0
1.0

>  <atom_types>  (508) 
c3
ca
ca
ca
ca
ca
ca
oh
c3
hc
hc
hc
ha
ha
ha
ho
hc
hc
hc

>  <target>  (508) 
-5.91

>  <cal>  (508) 
-5.014

$$$$
mobley_8525830
     RDKit          3D

 17 16  0  0  0  0  0  0  0  0999 V2000
    0.4610   -1.2660   -2.2100 C   0  0  0  0  0  0  0  0  0  0  0  0
   -0.1960   -1.1090   -0.8480 C   0  0  0  0  0  0  0  0  0  0  0  0
    0.2160    0.2010   -0.1750 C   0  0  0  0  0  0  0  0  0  0  0  0
   -0.4470    0.3560    1.1950 C   0  0  0  0  0  0  0  0  0  0  0  0
   -0.0310    1.6660    1.8640 C   0  0  0  0  0  0  0  0  0  0  0  0
   -0.9650    1.8670    3.7760 I   0  0  0  0  0  0  0  0  0  0  0  0
    0.0000    0.0000    0.0000 H   0  0  0  0  0  0  0  0  0  0  0  0
    0.0000    0.0000    0.0000 H   0  0  0  0  0  0  0  0  0  0  0  0
    0.0000    0.0000    0.0000 H   0  0  0  0  0  0  0  0  0  0  0  0
    0.0000    0.0000    0.0000 H   0  0  0  0  0  0  0  0  0  0  0  0
    0.0000    0.0000    0.0000 H   0  0  0  0  0  0  0  0  0  0  0  0
    0.0000    0.0000    0.0000 H   0  0  0  0  0  0  0  0  0  0  0  0
    0.0000    0.0000    0.0000 H   0  0  0  0  0  0  0  0  0  0  0  0
    0.0000    0.0000    0.0000 H   0  0  0  0  0  0  0  0  0  0  0  0
    0.0000    0.0000    0.0000 H   0  0  0  0  0  0  0  0  0  0  0  0
    0.0000    0.0000    0.0000 H   0  0  0  0  0  0  0  0  0  0  0  0
    0.0000    0.0000    0.0000 H   0  0  0  0  0  0  0  0  0  0  0  0
  1  2  1  0
  2  3  1  0
  3  4  1  0
  4  5  1  0
  5  6  1  0
  1  7  1  0
  1  8  1  0
  1  9  1  0
  2 10  1  0
  2 11  1  0
  3 12  1  0
  3 13  1  0
  4 14  1  0
  4 15  1  0
  5 16  1  0
  5 17  1  0
M  END
>  <partial_charges>  (509) 
-0.0927999988198
-0.0798999965191
-0.0807000026107
-0.0763000026345
0.0683000013232
-0.253500014544
0.033900000155
0.033900000155
0.033900000155
0.0403999984264
0.0403999984264
0.0412999987602
0.0412999987602
0.0535000003874
0.0535000003874
0.0714000016451
0.0714000016451

>  <partial_bond_orders>  (509) 
1.0
1.0
1.0
1.0
1.0
1.0
1.0
1.0
1.0
1.0
1.0
1.0
1.0
1.0
1.0
1.0

>  <atom_types>  (509) 
c3
c3
c3
c3
c3
i
hc
hc
hc
hc
hc
hc
hc
hc
hc
h1
h1

>  <target>  (509) 
-0.14

>  <cal>  (509) 
-0.111

$$$$
mobley_1244778
     RDKit          3D

 22 22  0  0  0  0  0  0  0  0999 V2000
    0.8260   -0.2290    0.6860 C   0  0  0  0  0  0  0  0  0  0  0  0
    0.7740   -1.7240    0.9850 C   0  0  0  0  0  0  0  0  0  0  0  0
    1.4770   -2.2080    2.2490 C   0  0  0  0  0  0  0  0  0  0  0  0
    2.8090   -1.5310    2.5510 C   0  0  0  0  0  0  0  0  0  0  0  0
    2.6560   -0.2350    3.3470 C   0  0  0  0  0  0  0  0  0  0  0  0
    2.0670    0.9400    2.5670 C   0  0  0  0  0  0  0  0  0  0  0  0
    0.7160    0.6800    1.9060 C   0  0  0  0  0  0  0  0  0  0  0  0
    3.9580    0.1440    3.8020 O   0  0  0  0  0  0  0  0  0  0  0  0
    0.0000    0.0000    0.0000 H   0  0  0  0  0  0  0  0  0  0  0  0
    0.0000    0.0000    0.0000 H   0  0  0  0  0  0  0  0  0  0  0  0
    0.0000    0.0000    0.0000 H   0  0  0  0  0  0  0  0  0  0  0  0
    0.0000    0.0000    0.0000 H   0  0  0  0  0  0  0  0  0  0  0  0
    0.0000    0.0000    0.0000 H   0  0  0  0  0  0  0  0  0  0  0  0
    0.0000    0.0000    0.0000 H   0  0  0  0  0  0  0  0  0  0  0  0
    0.0000    0.0000    0.0000 H   0  0  0  0  0  0  0  0  0  0  0  0
    0.0000    0.0000    0.0000 H   0  0  0  0  0  0  0  0  0  0  0  0
    0.0000    0.0000    0.0000 H   0  0  0  0  0  0  0  0  0  0  0  0
    0.0000    0.0000    0.0000 H   0  0  0  0  0  0  0  0  0  0  0  0
    0.0000    0.0000    0.0000 H   0  0  0  0  0  0  0  0  0  0  0  0
    0.0000    0.0000    0.0000 H   0  0  0  0  0  0  0  0  0  0  0  0
    0.0000    0.0000    0.0000 H   0  0  0  0  0  0  0  0  0  0  0  0
    0.0000    0.0000    0.0000 H   0  0  0  0  0  0  0  0  0  0  0  0
  1  7  1  0
  1  2  1  0
  2  3  1  0
  3  4  1  0
  4  5  1  0
  5  6  1  0
  6  7  1  0
  5  8  1  0
  1  9  1  0
  1 10  1  0
  2 11  1  0
  2 12  1  0
  3 13  1  0
  3 14  1  0
  4 15  1  0
  4 16  1  0
  5 17  1  0
  6 18  1  0
  6 19  1  0
  7 20  1  0
  7 21  1  0
  8 22  1  0
M  END
>  <partial_charges>  (510) 
-0.0741999968886
-0.0741999968886
-0.0693000033498
-0.0908999964595
0.145300000906
-0.0908999964595
-0.0693000033498
-0.605499982834
0.0373999997973
0.0373999997973
0.0373999997973
0.0373999997973
0.0394000001252
0.0394000001252
0.0489999987185
0.0489999987185
0.028599999845
0.0489999987185
0.0489999987185
0.0394000001252
0.0394000001252
0.396800011396

>  <partial_bond_orders>  (510) 
1.0
1.0
1.0
1.0
1.0
1.0
1.0
1.0
1.0
1.0
1.0
1.0
1.0
1.0
1.0
1.0
1.0
1.0
1.0
1.0
1.0
1.0

>  <atom_types>  (510) 
c3
c3
c3
c3
c3
c3
c3
oh
hc
hc
hc
hc
hc
hc
hc
hc
h1
hc
hc
hc
hc
ho

>  <target>  (510) 
-5.48

>  <cal>  (510) 
-4.345

$$$$
mobley_9281946
     RDKit          3D

 32 32  0  0  0  0  0  0  0  0999 V2000
    1.6470    1.0970   -0.1440 C   0  0  0  0  0  0  0  0  0  0  0  0
    0.4360    0.4920   -0.8210 C   0  0  0  0  0  0  0  0  0  0  0  0
    0.8700   -0.4090   -1.8260 O   0  0  0  0  0  0  0  0  0  0  0  0
   -0.2260   -1.2120   -2.7240 P   0  0  0  0  0  0  0  0  0  0  0  0
   -1.4490   -2.3690   -1.7410 S   0  0  0  0  0  0  0  0  0  0  0  0
    0.7380   -1.9140   -3.8320 O   0  0  0  0  0  0  0  0  0  0  0  0
    1.7520   -2.8120   -3.4150 C   0  0  0  0  0  0  0  0  0  0  0  0
    2.4970   -3.3180   -4.6330 C   0  0  0  0  0  0  0  0  0  0  0  0
   -0.8840    0.0040   -3.5710 O   0  0  0  0  0  0  0  0  0  0  0  0
   -1.8820   -0.1000   -4.5020 C   0  0  0  0  0  0  0  0  0  0  0  0
   -2.0130   -1.2650   -5.2570 C   0  0  0  0  0  0  0  0  0  0  0  0
   -3.0300   -1.3710   -6.2060 C   0  0  0  0  0  0  0  0  0  0  0  0
   -3.9160   -0.3110   -6.3990 C   0  0  0  0  0  0  0  0  0  0  0  0
   -3.7850    0.8540   -5.6440 C   0  0  0  0  0  0  0  0  0  0  0  0
   -2.7680    0.9600   -4.6960 C   0  0  0  0  0  0  0  0  0  0  0  0
   -4.9510   -0.4190   -7.3650 N   0  0  0  0  0  0  0  0  0  0  0  0
   -5.7380    0.5460   -7.5240 O   0  0  0  0  0  0  0  0  0  0  0  0
   -5.0520   -1.4760   -8.0340 O   0  0  0  0  0  0  0  0  0  0  0  0
    0.0000    0.0000    0.0000 H   0  0  0  0  0  0  0  0  0  0  0  0
    0.0000    0.0000    0.0000 H   0  0  0  0  0  0  0  0  0  0  0  0
    0.0000    0.0000    0.0000 H   0  0  0  0  0  0  0  0  0  0  0  0
    0.0000    0.0000    0.0000 H   0  0  0  0  0  0  0  0  0  0  0  0
    0.0000    0.0000    0.0000 H   0  0  0  0  0  0  0  0  0  0  0  0
    0.0000    0.0000    0.0000 H   0  0  0  0  0  0  0  0  0  0  0  0
    0.0000    0.0000    0.0000 H   0  0  0  0  0  0  0  0  0  0  0  0
    0.0000    0.0000    0.0000 H   0  0  0  0  0  0  0  0  0  0  0  0
    0.0000    0.0000    0.0000 H   0  0  0  0  0  0  0  0  0  0  0  0
    0.0000    0.0000    0.0000 H   0  0  0  0  0  0  0  0  0  0  0  0
    0.0000    0.0000    0.0000 H   0  0  0  0  0  0  0  0  0  0  0  0
    0.0000    0.0000    0.0000 H   0  0  0  0  0  0  0  0  0  0  0  0
    0.0000    0.0000    0.0000 H   0  0  0  0  0  0  0  0  0  0  0  0
    0.0000    0.0000    0.0000 H   0  0  0  0  0  0  0  0  0  0  0  0
  1  2  1  0
  2  3  1  0
  3  4  1  0
  4  5  2  0
  4  6  1  0
  6  7  1  0
  7  8  1  0
  4  9  1  0
  9 10  1  0
 10 15  2  0
 10 11  1  0
 11 12  2  0
 12 13  1  0
 13 14  2  0
 14 15  1  0
 13 16  1  0
 16 17  1  0
 16 18  1  0
  1 19  1  0
  1 20  1  0
  1 21  1  0
  2 22  1  0
  2 23  1  0
  7 24  1  0
  7 25  1  0
  8 26  1  0
  8 27  1  0
  8 28  1  0
 11 29  1  0
 12 30  1  0
 14 31  1  0
 15 32  1  0
M  CHG  2  17  -1  18  -1
M  END
>  <partial_charges>  (511) 
-0.118600003421
0.158099994063
-0.547900021076
1.23329997063
-0.560500025749
-0.547900021076
0.158099994063
-0.118600003421
-0.46590000391
0.168699994683
-0.140599995852
-0.0507999993861
-0.174899995327
-0.0507999993861
-0.140599995852
0.31510001421
-0.202199995518
-0.202199995518
0.0557000003755
0.0557000003755
0.0557000003755
0.0661000013351
0.0661000013351
0.0661000013351
0.0661000013351
0.0557000003755
0.0557000003755
0.0557000003755
0.165700003505
0.179100006819
0.179100006819
0.165700003505

>  <partial_bond_orders>  (511) 
1.0
1.0
1.0
2.0
1.0
1.0
1.0
1.0
1.0
2.0
1.0
2.0
1.0
2.0
1.0
1.0
1.0
1.0
1.0
1.0
1.0
1.0
1.0
1.0
1.0
1.0
1.0
1.0
1.0
1.0
1.0
1.0

>  <atom_types>  (511) 
c3
c3
os
p5
s
os
c3
c3
os
ca
ca
ca
ca
ca
ca
no
o
o
hc
hc
hc
h1
h1
h1
h1
hc
hc
hc
ha
ha
ha
ha

>  <target>  (511) 
-6.74

>  <cal>  (511) 
-9.211

$$$$
mobley_2837389
     RDKit          3D

 10 10  0  0  0  0  0  0  0  0999 V2000
    0.2890    0.0200    1.0410 C   0  0  0  0  0  0  0  0  0  0  0  0
    1.5200    0.4730    1.5760 C   0  0  0  0  0  0  0  0  0  0  0  0
    1.4580    0.3170    2.9430 C   0  0  0  0  0  0  0  0  0  0  0  0
    0.2320   -0.2130    3.2490 N   0  0  0  0  0  0  0  0  0  0  0  0
   -0.4890   -0.3990    2.0980 C   0  0  0  0  0  0  0  0  0  0  0  0
    0.0000    0.0000    0.0000 H   0  0  0  0  0  0  0  0  0  0  0  0
    0.0000    0.0000    0.0000 H   0  0  0  0  0  0  0  0  0  0  0  0
    0.0000    0.0000    0.0000 H   0  0  0  0  0  0  0  0  0  0  0  0
    0.0000    0.0000    0.0000 H   0  0  0  0  0  0  0  0  0  0  0  0
    0.0000    0.0000    0.0000 H   0  0  0  0  0  0  0  0  0  0  0  0
  1  5  2  0
  1  2  1  0
  2  3  2  0
  3  4  1  0
  4  5  1  0
  1  6  1  0
  2  7  1  0
  3  8  1  0
  4  9  1  0
  5 10  1  0
M  END
>  <partial_charges>  (512) 
-0.196600005031
-0.196600005031
-0.170200005174
-0.181099995971
-0.170200005174
0.15000000596
0.15000000596
0.16210000217
0.290399998426
0.16210000217

>  <partial_bond_orders>  (512) 
2.0
1.0
2.0
1.0
1.0
1.0
1.0
1.0
1.0
1.0

>  <atom_types>  (512) 
cc
cc
cd
na
cd
ha
ha
h4
hn
h4

>  <target>  (512) 
-4.78

>  <cal>  (512) 
-4.014

$$$$
mobley_1046331
     RDKit          3D

 15 15  0  0  0  0  0  0  0  0999 V2000
    1.8850   -1.0360   -0.1120 C   0  0  0  0  0  0  0  0  0  0  0  0
    2.9210   -1.6310    0.6080 C   0  0  0  0  0  0  0  0  0  0  0  0
    2.8780   -1.6520    2.0020 C   0  0  0  0  0  0  0  0  0  0  0  0
    1.8000   -1.0790    2.6760 C   0  0  0  0  0  0  0  0  0  0  0  0
    0.7640   -0.4840    1.9550 C   0  0  0  0  0  0  0  0  0  0  0  0
    0.8070   -0.4630    0.5610 C   0  0  0  0  0  0  0  0  0  0  0  0
    1.7590   -1.0980    4.0360 O   0  0  0  0  0  0  0  0  0  0  0  0
    2.3600    0.0150    4.6330 C   0  0  0  0  0  0  0  0  0  0  0  0
    2.8920    0.9560    4.0660 O   0  0  0  0  0  0  0  0  0  0  0  0
    0.0000    0.0000    0.0000 H   0  0  0  0  0  0  0  0  0  0  0  0
    0.0000    0.0000    0.0000 H   0  0  0  0  0  0  0  0  0  0  0  0
    0.0000    0.0000    0.0000 H   0  0  0  0  0  0  0  0  0  0  0  0
    0.0000    0.0000    0.0000 H   0  0  0  0  0  0  0  0  0  0  0  0
    0.0000    0.0000    0.0000 H   0  0  0  0  0  0  0  0  0  0  0  0
    0.0000    0.0000    0.0000 H   0  0  0  0  0  0  0  0  0  0  0  0
  1  6  2  0
  1  2  1  0
  2  3  2  0
  3  4  1  0
  4  5  2  0
  5  6  1  0
  4  7  1  0
  7  8  1  0
  8  9  2  0
  1 10  1  0
  2 11  1  0
  3 12  1  0
  5 13  1  0
  6 14  1  0
  8 15  1  0
M  END
>  <partial_charges>  (513) 
-0.128999993205
-0.119000002742
-0.124499998987
0.0954999998212
-0.124499998987
-0.119000002742
-0.378699988127
0.630100011826
-0.512300014496
0.134900003672
0.135800004005
0.144800007343
0.144800007343
0.135800004005
0.0851000025868

>  <partial_bond_orders>  (513) 
2.0
1.0
2.0
1.0
2.0
1.0
1.0
1.0
2.0
1.0
1.0
1.0
1.0
1.0
1.0

>  <atom_types>  (513) 
ca
ca
ca
ca
ca
ca
os
c
o
ha
ha
ha
ha
ha
h5

>  <target>  (513) 
-3.82

>  <cal>  (513) 
-5.442

$$$$
mobley_637522
     RDKit          3D

 24 26  0  0  0  0  0  0  0  0999 V2000
    1.1580    1.7940   -0.2580 C   0  0  0  0  0  0  0  0  0  0  0  0
   -0.0270    1.0690   -0.1890 C   0  0  0  0  0  0  0  0  0  0  0  0
   -1.2510    1.7150   -0.3640 C   0  0  0  0  0  0  0  0  0  0  0  0
   -1.3050    3.0970   -0.6100 C   0  0  0  0  0  0  0  0  0  0  0  0
   -2.5290    3.7620   -0.7880 C   0  0  0  0  0  0  0  0  0  0  0  0
   -2.5820    5.1450   -1.0340 C   0  0  0  0  0  0  0  0  0  0  0  0
   -3.8060    5.8110   -1.2120 C   0  0  0  0  0  0  0  0  0  0  0  0
   -3.8420    7.1840   -1.4560 C   0  0  0  0  0  0  0  0  0  0  0  0
   -2.6570    7.9090   -1.5240 C   0  0  0  0  0  0  0  0  0  0  0  0
   -1.4330    7.2630   -1.3490 C   0  0  0  0  0  0  0  0  0  0  0  0
   -1.3790    5.8810   -1.1030 C   0  0  0  0  0  0  0  0  0  0  0  0
   -0.1540    5.2160   -0.9250 C   0  0  0  0  0  0  0  0  0  0  0  0
   -0.1020    3.8330   -0.6790 C   0  0  0  0  0  0  0  0  0  0  0  0
    1.1220    3.1680   -0.5010 C   0  0  0  0  0  0  0  0  0  0  0  0
    0.0000    0.0000    0.0000 H   0  0  0  0  0  0  0  0  0  0  0  0
    0.0000    0.0000    0.0000 H   0  0  0  0  0  0  0  0  0  0  0  0
    0.0000    0.0000    0.0000 H   0  0  0  0  0  0  0  0  0  0  0  0
    0.0000    0.0000    0.0000 H   0  0  0  0  0  0  0  0  0  0  0  0
    0.0000    0.0000    0.0000 H   0  0  0  0  0  0  0  0  0  0  0  0
    0.0000    0.0000    0.0000 H   0  0  0  0  0  0  0  0  0  0  0  0
    0.0000    0.0000    0.0000 H   0  0  0  0  0  0  0  0  0  0  0  0
    0.0000    0.0000    0.0000 H   0  0  0  0  0  0  0  0  0  0  0  0
    0.0000    0.0000    0.0000 H   0  0  0  0  0  0  0  0  0  0  0  0
    0.0000    0.0000    0.0000 H   0  0  0  0  0  0  0  0  0  0  0  0
  1 14  2  0
  1  2  1  0
  2  3  2  0
  3  4  1  0
  4 13  2  0
  4  5  1  0
  5  6  2  0
  6 11  1  0
  6  7  1  0
  7  8  2  0
  8  9  1  0
  9 10  2  0
 10 11  1  0
 11 12  2  0
 12 13  1  0
 13 14  1  0
  1 15  1  0
  2 16  1  0
  3 17  1  0
  5 18  1  0
  7 19  1  0
  8 20  1  0
  9 21  1  0
 10 22  1  0
 12 23  1  0
 14 24  1  0
M  END
>  <partial_charges>  (514) 
-0.126599997282
-0.126399993896
-0.117899999022
-0.0335000008345
-0.106499999762
-0.0335000008345
-0.117899999022
-0.126399993896
-0.126399993896
-0.117899999022
-0.0335000008345
-0.106499999762
-0.0335000008345
-0.117899999022
0.132400006056
0.132400006056
0.131699994206
0.134000003338
0.131699994206
0.132400006056
0.132400006056
0.131699994206
0.134000003338
0.131699994206

>  <partial_bond_orders>  (514) 
2.0
1.0
2.0
1.0
2.0
1.0
2.0
1.0
1.0
2.0
1.0
2.0
1.0
2.0
1.0
1.0
1.0
1.0
1.0
1.0
1.0
1.0
1.0
1.0
1.0
1.0

>  <atom_types>  (514) 
ca
ca
ca
ca
ca
ca
ca
ca
ca
ca
ca
ca
ca
ca
ha
ha
ha
ha
ha
ha
ha
ha
ha
ha

>  <target>  (514) 
-3.95

>  <cal>  (514) 
-5.187

$$$$
mobley_2607611
     RDKit          3D

 26 25  0  0  0  0  0  0  0  0999 V2000
    1.7560   -1.3900    0.8920 C   0  0  0  0  0  0  0  0  0  0  0  0
    1.1580   -1.8700    2.2060 C   0  0  0  0  0  0  0  0  0  0  0  0
   -0.1230   -1.1070    2.5460 C   0  0  0  0  0  0  0  0  0  0  0  0
   -0.7660   -1.5520    3.8620 C   0  0  0  0  0  0  0  0  0  0  0  0
   -2.0460   -0.7900    4.2020 C   0  0  0  0  0  0  0  0  0  0  0  0
   -2.6480   -1.2670    5.5170 C   0  0  0  0  0  0  0  0  0  0  0  0
   -3.8300   -0.5240    5.7780 O   0  0  0  0  0  0  0  0  0  0  0  0
   -4.4900   -0.8400    6.9330 C   0  0  0  0  0  0  0  0  0  0  0  0
   -4.1540   -1.6920    7.7440 O   0  0  0  0  0  0  0  0  0  0  0  0
   -5.7100    0.0200    7.0760 C   0  0  0  0  0  0  0  0  0  0  0  0
    0.0000    0.0000    0.0000 H   0  0  0  0  0  0  0  0  0  0  0  0
    0.0000    0.0000    0.0000 H   0  0  0  0  0  0  0  0  0  0  0  0
    0.0000    0.0000    0.0000 H   0  0  0  0  0  0  0  0  0  0  0  0
    0.0000    0.0000    0.0000 H   0  0  0  0  0  0  0  0  0  0  0  0
    0.0000    0.0000    0.0000 H   0  0  0  0  0  0  0  0  0  0  0  0
    0.0000    0.0000    0.0000 H   0  0  0  0  0  0  0  0  0  0  0  0
    0.0000    0.0000    0.0000 H   0  0  0  0  0  0  0  0  0  0  0  0
    0.0000    0.0000    0.0000 H   0  0  0  0  0  0  0  0  0  0  0  0
    0.0000    0.0000    0.0000 H   0  0  0  0  0  0  0  0  0  0  0  0
    0.0000    0.0000    0.0000 H   0  0  0  0  0  0  0  0  0  0  0  0
    0.0000    0.0000    0.0000 H   0  0  0  0  0  0  0  0  0  0  0  0
    0.0000    0.0000    0.0000 H   0  0  0  0  0  0  0  0  0  0  0  0
    0.0000    0.0000    0.0000 H   0  0  0  0  0  0  0  0  0  0  0  0
    0.0000    0.0000    0.0000 H   0  0  0  0  0  0  0  0  0  0  0  0
    0.0000    0.0000    0.0000 H   0  0  0  0  0  0  0  0  0  0  0  0
    0.0000    0.0000    0.0000 H   0  0  0  0  0  0  0  0  0  0  0  0
  1  2  1  0
  2  3  1  0
  3  4  1  0
  4  5  1  0
  5  6  1  0
  6  7  1  0
  7  8  1  0
  8  9  2  0
  8 10  1  0
  1 11  1  0
  1 12  1  0
  1 13  1  0
  2 14  1  0
  2 15  1  0
  3 16  1  0
  3 17  1  0
  4 18  1  0
  4 19  1  0
  5 20  1  0
  5 21  1  0
  6 22  1  0
  6 23  1  0
 10 24  1  0
 10 25  1  0
 10 26  1  0
M  END
>  <partial_charges>  (515) 
-0.0934000015259
-0.0821999981999
-0.0780000016093
-0.075300000608
-0.114200003445
0.138300001621
-0.457500010729
0.636200010777
-0.523699998856
-0.15719999373
0.0326999984682
0.0326999984682
0.0326999984682
0.0377000011504
0.0377000011504
0.0436000004411
0.0436000004411
0.0419999994338
0.0419999994338
0.0511000007391
0.0511000007391
0.0678000003099
0.0678000003099
0.0749000012875
0.0749000012875
0.0749000012875

>  <partial_bond_orders>  (515) 
1.0
1.0
1.0
1.0
1.0
1.0
1.0
2.0
1.0
1.0
1.0
1.0
1.0
1.0
1.0
1.0
1.0
1.0
1.0
1.0
1.0
1.0
1.0
1.0
1.0

>  <atom_types>  (515) 
c3
c3
c3
c3
c3
c3
os
c
o
c3
hc
hc
hc
hc
hc
hc
hc
hc
hc
hc
hc
h1
h1
hc
hc
hc

>  <target>  (515) 
-2.26

>  <cal>  (515) 
-2.219

$$$$
mobley_8048190
     RDKit          3D

  9  8  0  0  0  0  0  0  0  0999 V2000
    0.0090   -1.0710   -0.2220 C   0  0  0  0  0  0  0  0  0  0  0  0
   -1.1140   -1.7340    0.5270 C   0  0  0  0  0  0  0  0  0  0  0  0
   -2.2910   -1.5800    0.2100 O   0  0  0  0  0  0  0  0  0  0  0  0
   -0.6960   -2.4990    1.5900 N   0  0  0  0  0  0  0  0  0  0  0  0
    0.0000    0.0000    0.0000 H   0  0  0  0  0  0  0  0  0  0  0  0
    0.0000    0.0000    0.0000 H   0  0  0  0  0  0  0  0  0  0  0  0
    0.0000    0.0000    0.0000 H   0  0  0  0  0  0  0  0  0  0  0  0
    0.0000    0.0000    0.0000 H   0  0  0  0  0  0  0  0  0  0  0  0
    0.0000    0.0000    0.0000 H   0  0  0  0  0  0  0  0  0  0  0  0
  1  2  1  0
  2  3  2  0
  2  4  1  0
  1  5  1  0
  1  6  1  0
  1  7  1  0
  4  8  1  0
  4  9  1  0
M  END
>  <partial_charges>  (516) 
-0.172800004482
0.657199978828
-0.613799989223
-0.683200001717
0.0645999982953
0.0645999982953
0.0645999982953
0.309300005436
0.309300005436

>  <partial_bond_orders>  (516) 
1.0
2.0
1.0
1.0
1.0
1.0
1.0
1.0

>  <atom_types>  (516) 
c3
c
o
n
hc
hc
hc
hn
hn

>  <target>  (516) 
-9.71

>  <cal>  (516) 
-8.82

$$$$
mobley_2484519
     RDKit          3D

 15 15  0  0  0  0  0  0  0  0999 V2000
    1.8850   -1.0360   -0.1120 C   0  0  0  0  0  0  0  0  0  0  0  0
    2.9210   -1.6310    0.6080 C   0  0  0  0  0  0  0  0  0  0  0  0
    2.8780   -1.6520    2.0020 C   0  0  0  0  0  0  0  0  0  0  0  0
    1.8000   -1.0790    2.6760 C   0  0  0  0  0  0  0  0  0  0  0  0
    0.7640   -0.4840    1.9550 C   0  0  0  0  0  0  0  0  0  0  0  0
    0.8070   -0.4630    0.5610 C   0  0  0  0  0  0  0  0  0  0  0  0
    1.7550   -1.1010    4.1660 C   0  0  0  0  0  0  0  0  0  0  0  0
    2.5390    0.3450    4.8410 Cl  0  0  0  0  0  0  0  0  0  0  0  0
    0.0000    0.0000    0.0000 H   0  0  0  0  0  0  0  0  0  0  0  0
    0.0000    0.0000    0.0000 H   0  0  0  0  0  0  0  0  0  0  0  0
    0.0000    0.0000    0.0000 H   0  0  0  0  0  0  0  0  0  0  0  0
    0.0000    0.0000    0.0000 H   0  0  0  0  0  0  0  0  0  0  0  0
    0.0000    0.0000    0.0000 H   0  0  0  0  0  0  0  0  0  0  0  0
    0.0000    0.0000    0.0000 H   0  0  0  0  0  0  0  0  0  0  0  0
    0.0000    0.0000    0.0000 H   0  0  0  0  0  0  0  0  0  0  0  0
  1  6  2  0
  1  2  1  0
  2  3  2  0
  3  4  1  0
  4  5  2  0
  5  6  1  0
  4  7  1  0
  7  8  1  0
  1  9  1  0
  2 10  1  0
  3 11  1  0
  5 12  1  0
  6 13  1  0
  7 14  1  0
  7 15  1  0
M  END
>  <partial_charges>  (517) 
-0.119599997997
-0.131400004029
-0.108599998057
-0.104500003159
-0.108599998057
-0.131400004029
0.0847999975085
-0.193700000644
0.132899999619
0.134200006723
0.13560000062
0.13560000062
0.134200006723
0.0702000036836
0.0702000036836

>  <partial_bond_orders>  (517) 
2.0
1.0
2.0
1.0
2.0
1.0
1.0
1.0
1.0
1.0
1.0
1.0
1.0
1.0
1.0

>  <atom_types>  (517) 
ca
ca
ca
ca
ca
ca
c3
cl
ha
ha
ha
ha
ha
h1
h1

>  <target>  (517) 
-1.93

>  <cal>  (517) 
-1.742

$$$$
mobley_6239320
     RDKit          3D

 12 12  0  0  0  0  0  0  0  0999 V2000
   -0.4600    1.3220    0.3000 C   0  0  0  0  0  0  0  0  0  0  0  0
   -0.8550    2.4590    0.5580 O   0  0  0  0  0  0  0  0  0  0  0  0
   -0.6230    0.2480    1.1720 N   0  0  0  0  0  0  0  0  0  0  0  0
   -0.2010   -1.0590    0.9420 C   0  0  0  0  0  0  0  0  0  0  0  0
   -0.3740   -1.9690    1.7520 O   0  0  0  0  0  0  0  0  0  0  0  0
    0.4340   -1.2470   -0.2830 N   0  0  0  0  0  0  0  0  0  0  0  0
    0.6600   -0.2630   -1.2420 C   0  0  0  0  0  0  0  0  0  0  0  0
    1.2280   -0.4890   -2.3110 O   0  0  0  0  0  0  0  0  0  0  0  0
    0.1900    0.9990   -0.8890 N   0  0  0  0  0  0  0  0  0  0  0  0
    0.0000    0.0000    0.0000 H   0  0  0  0  0  0  0  0  0  0  0  0
    0.0000    0.0000    0.0000 H   0  0  0  0  0  0  0  0  0  0  0  0
    0.0000    0.0000    0.0000 H   0  0  0  0  0  0  0  0  0  0  0  0
  1  9  1  0
  1  2  2  0
  1  3  1  0
  3  4  1  0
  4  5  2  0
  4  6  1  0
  6  7  1  0
  7  8  2  0
  7  9  1  0
  3 10  1  0
  6 11  1  0
  9 12  1  0
M  END
>  <partial_charges>  (518) 
0.821799993515
-0.605300009251
-0.591899991035
0.821900010109
-0.605300009251
-0.591899991035
0.821900010109
-0.605300009251
-0.591899991035
0.375299990177
0.375299990177
0.375299990177

>  <partial_bond_orders>  (518) 
1.0
2.0
1.0
1.0
2.0
1.0
1.0
2.0
1.0
1.0
1.0
1.0

>  <atom_types>  (518) 
c
o
n
c
o
n
c
o
n
hn
hn
hn

>  <target>  (518) 
-18.06

>  <cal>  (518) 
-21.762

$$$$
mobley_5286200
     RDKit          3D

 14 13  0  0  0  0  0  0  0  0999 V2000
   -0.4600   -0.1430   -0.5980 C   0  0  0  0  0  0  0  0  0  0  0  0
    0.4210    0.1210    0.6300 C   0  0  0  0  0  0  0  0  0  0  0  0
    1.4010   -1.0120    0.9190 C   0  0  0  0  0  0  0  0  0  0  0  0
    2.4070   -0.6760    2.3480 Cl  0  0  0  0  0  0  0  0  0  0  0  0
   -1.4400    0.9900   -0.8870 C   0  0  0  0  0  0  0  0  0  0  0  0
   -2.4460    0.6540   -2.3150 Cl  0  0  0  0  0  0  0  0  0  0  0  0
    0.0000    0.0000    0.0000 H   0  0  0  0  0  0  0  0  0  0  0  0
    0.0000    0.0000    0.0000 H   0  0  0  0  0  0  0  0  0  0  0  0
    0.0000    0.0000    0.0000 H   0  0  0  0  0  0  0  0  0  0  0  0
    0.0000    0.0000    0.0000 H   0  0  0  0  0  0  0  0  0  0  0  0
    0.0000    0.0000    0.0000 H   0  0  0  0  0  0  0  0  0  0  0  0
    0.0000    0.0000    0.0000 H   0  0  0  0  0  0  0  0  0  0  0  0
    0.0000    0.0000    0.0000 H   0  0  0  0  0  0  0  0  0  0  0  0
    0.0000    0.0000    0.0000 H   0  0  0  0  0  0  0  0  0  0  0  0
  1  2  1  0
  2  3  1  0
  3  4  1  0
  1  5  1  0
  5  6  1  0
  1  7  1  0
  1  8  1  0
  2  9  1  0
  2 10  1  0
  3 11  1  0
  3 12  1  0
  5 13  1  0
  5 14  1  0
M  END
>  <partial_charges>  (519) 
-0.0932999998331
-0.0931999981403
0.0379999987781
-0.194000005722
0.0379999987781
-0.194000005722
0.0581000000238
0.0581000000238
0.0581000000238
0.0581000000238
0.0665000006557
0.0665000006557
0.0665000006557
0.0665000006557

>  <partial_bond_orders>  (519) 
1.0
1.0
1.0
1.0
1.0
1.0
1.0
1.0
1.0
1.0
1.0
1.0
1.0

>  <atom_types>  (519) 
c3
c3
c3
cl
c3
cl
hc
hc
hc
hc
h1
h1
h1
h1

>  <target>  (519) 
-2.32

>  <cal>  (519) 
-0.404

$$$$
mobley_7578802
     RDKit          3D

  5  4  0  0  0  0  0  0  0  0999 V2000
    0.0110    0.0590   -0.0990 C   0  0  0  0  0  0  0  0  0  0  0  0
   -0.9880   -1.5560   -0.5170 Br  0  0  0  0  0  0  0  0  0  0  0  0
   -0.9500    1.2170    1.1320 Br  0  0  0  0  0  0  0  0  0  0  0  0
    1.8130   -0.3320    0.5180 Br  0  0  0  0  0  0  0  0  0  0  0  0
    0.0000    0.0000    0.0000 H   0  0  0  0  0  0  0  0  0  0  0  0
  1  2  1  0
  1  3  1  0
  1  4  1  0
  1  5  1  0
M  END
>  <partial_charges>  (520) 
0.0542999990284
-0.0623000003397
-0.0623000003397
-0.0623000003397
0.132499992847

>  <partial_bond_orders>  (520) 
1.0
1.0
1.0
1.0

>  <atom_types>  (520) 
c3
br
br
br
h3

>  <target>  (520) 
-2.13

>  <cal>  (520) 
-0.531

$$$$
mobley_5890803
     RDKit          3D

 20 19  0  0  0  0  0  0  0  0999 V2000
   -4.5360    3.9850    4.4140 C   0  0  0  0  0  0  0  0  0  0  0  0
   -3.4080    3.2180    3.7490 C   0  0  0  0  0  0  0  0  0  0  0  0
   -3.0830    1.9310    4.4930 C   0  0  0  0  0  0  0  0  0  0  0  0
   -2.0160    1.2610    3.8140 O   0  0  0  0  0  0  0  0  0  0  0  0
   -1.6140    0.0810    4.3720 C   0  0  0  0  0  0  0  0  0  0  0  0
   -2.0820   -0.4340    5.3780 O   0  0  0  0  0  0  0  0  0  0  0  0
   -0.4900   -0.4940    3.5420 C   0  0  0  0  0  0  0  0  0  0  0  0
    0.0160   -1.8130    4.0990 C   0  0  0  0  0  0  0  0  0  0  0  0
    0.0000    0.0000    0.0000 H   0  0  0  0  0  0  0  0  0  0  0  0
    0.0000    0.0000    0.0000 H   0  0  0  0  0  0  0  0  0  0  0  0
    0.0000    0.0000    0.0000 H   0  0  0  0  0  0  0  0  0  0  0  0
    0.0000    0.0000    0.0000 H   0  0  0  0  0  0  0  0  0  0  0  0
    0.0000    0.0000    0.0000 H   0  0  0  0  0  0  0  0  0  0  0  0
    0.0000    0.0000    0.0000 H   0  0  0  0  0  0  0  0  0  0  0  0
    0.0000    0.0000    0.0000 H   0  0  0  0  0  0  0  0  0  0  0  0
    0.0000    0.0000    0.0000 H   0  0  0  0  0  0  0  0  0  0  0  0
    0.0000    0.0000    0.0000 H   0  0  0  0  0  0  0  0  0  0  0  0
    0.0000    0.0000    0.0000 H   0  0  0  0  0  0  0  0  0  0  0  0
    0.0000    0.0000    0.0000 H   0  0  0  0  0  0  0  0  0  0  0  0
    0.0000    0.0000    0.0000 H   0  0  0  0  0  0  0  0  0  0  0  0
  1  2  1  0
  2  3  1  0
  3  4  1  0
  4  5  1  0
  5  6  2  0
  5  7  1  0
  7  8  1  0
  1  9  1  0
  1 10  1  0
  1 11  1  0
  2 12  1  0
  2 13  1  0
  3 14  1  0
  3 15  1  0
  7 16  1  0
  7 17  1  0
  8 18  1  0
  8 19  1  0
  8 20  1  0
M  END
>  <partial_charges>  (521) 
-0.0900000035763
-0.110200002789
0.149399995804
-0.451700001955
0.632899999619
-0.520699977875
-0.133599996567
-0.0942000001669
0.0361000001431
0.0361000001431
0.0361000001431
0.0575999990106
0.0575999990106
0.0494999997318
0.0494999997318
0.0778999999166
0.0778999999166
0.0467000007629
0.0467000007629
0.0467000007629

>  <partial_bond_orders>  (521) 
1.0
1.0
1.0
1.0
2.0
1.0
1.0
1.0
1.0
1.0
1.0
1.0
1.0
1.0
1.0
1.0
1.0
1.0
1.0

>  <atom_types>  (521) 
c3
c3
c3
os
c
o
c3
c3
hc
hc
hc
hc
hc
h1
h1
hc
hc
hc
hc
hc

>  <target>  (521) 
-2.44

>  <cal>  (521) 
-2.453

$$$$
mobley_766666
     RDKit          3D

  6  5  0  0  0  0  0  0  0  0999 V2000
    0.1010   -0.3260   -0.6190 C   0  0  0  0  0  0  0  0  0  0  0  0
    0.0370    0.2550    0.5830 C   0  0  0  0  0  0  0  0  0  0  0  0
    1.4090    0.1980    1.6350 Cl  0  0  0  0  0  0  0  0  0  0  0  0
   -1.3660    1.0780    1.1640 Cl  0  0  0  0  0  0  0  0  0  0  0  0
   -1.1610   -0.3630   -1.7790 Cl  0  0  0  0  0  0  0  0  0  0  0  0
    0.0000    0.0000    0.0000 H   0  0  0  0  0  0  0  0  0  0  0  0
  1  2  2  0
  2  3  1  0
  2  4  1  0
  1  5  1  0
  1  6  1  0
M  END
>  <partial_charges>  (522) 
-0.0688000023365
0.0628999993205
-0.0516000017524
-0.0516000017524
-0.0653000026941
0.174300000072

>  <partial_bond_orders>  (522) 
2.0
1.0
1.0
1.0
1.0

>  <atom_types>  (522) 
c2
c2
cl
cl
cl
h4

>  <target>  (522) 
-0.44

>  <cal>  (522) 
0.818

$$$$
mobley_468867
     RDKit          3D

 22 24  0  0  1  0  0  0  0  0999 V2000
    0.9250   -2.0650   -0.8100 C   0  0  0  0  0  0  0  0  0  0  0  0
   -0.2570   -2.6650   -0.6420 C   0  0  0  0  0  0  0  0  0  0  0  0
   -1.4190   -1.7320   -0.7860 C   0  0  0  0  0  0  0  0  0  0  0  0
   -0.7690   -0.3630   -1.0550 C   0  0  0  0  0  0  0  0  0  0  0  0
    0.7850   -0.6060   -1.1010 C   0  0  0  0  0  0  0  0  0  0  0  0
    1.3250    0.4110   -0.0400 C   0  0  0  0  0  0  0  0  0  0  0  0
    0.8570   -0.0400    1.3310 C   0  0  0  0  0  0  0  0  0  0  0  0
   -0.4660    0.1540    1.3870 C   0  0  0  0  0  0  0  0  0  0  0  0
   -0.8950    0.7410    0.0540 C   0  0  0  0  0  0  0  0  0  0  0  0
    0.3620    1.6280   -0.2380 C   0  0  0  0  0  0  0  0  0  0  0  0
    0.6120    2.9780    0.9310 Cl  0  0  0  0  0  0  0  0  0  0  0  0
    0.4090    2.3610   -1.8730 Cl  0  0  0  0  0  0  0  0  0  0  0  0
   -2.4290    1.5870    0.0330 Cl  0  0  0  0  0  0  0  0  0  0  0  0
   -1.5170   -0.1980    2.6660 Cl  0  0  0  0  0  0  0  0  0  0  0  0
    1.8650   -0.7120    2.5150 Cl  0  0  0  0  0  0  0  0  0  0  0  0
    3.0300    0.7750   -0.2050 Cl  0  0  0  0  0  0  0  0  0  0  0  0
   -2.4180   -2.2540   -2.1670 Cl  0  0  0  0  0  0  0  0  0  0  0  0
    0.0000    0.0000    0.0000 H   0  0  0  0  0  0  0  0  0  0  0  0
    0.0000    0.0000    0.0000 H   0  0  0  0  0  0  0  0  0  0  0  0
    0.0000    0.0000    0.0000 H   0  0  0  0  0  0  0  0  0  0  0  0
    0.0000    0.0000    0.0000 H   0  0  0  0  0  0  0  0  0  0  0  0
    0.0000    0.0000    0.0000 H   0  0  0  0  0  0  0  0  0  0  0  0
  1  5  1  0
  1  2  2  0
  2  3  1  0
  3  4  1  0
  4  9  1  0
  4  5  1  0
  5  6  1  0
  6 10  1  0
  6  7  1  0
  7  8  2  0
  8  9  1  0
  9 10  1  0
 10 11  1  0
 10 12  1  0
  9 13  1  0
  8 14  1  0
  7 15  1  0
  6 16  1  0
  3 17  1  0
  1 18  1  0
  2 19  1  0
  3 20  1  0
  4 21  1  0
  5 22  1  0
M  END
>  <partial_charges>  (523) 
-0.147499993443
-0.162000000477
0.0812999978662
0.0975999981165
-0.0822999998927
0.110500000417
-0.0467999987304
0.102499999106
0.0838000029325
-0.0233999993652
-0.0408999994397
0.0810000002384
0.132300004363
-0.0901999995112
-0.0901999995112
-0.0715000033379
-0.00609999988228
-0.00329999998212
-0.075300000608
-0.169799998403
0.159199997783
0.161200001836

>  <partial_bond_orders>  (523) 
1.0
2.0
1.0
1.0
1.0
1.0
1.0
1.0
1.0
1.0
1.0
1.0
2.0
1.0
1.0
1.0
1.0
1.0
1.0
1.0
1.0
1.0
1.0
1.0

>  <atom_types>  (523) 
c2
c2
c3
h1
c3
hc
c3
hc
c3
c2
c2
c3
c3
cl
cl
cl
cl
cl
cl
cl
ha
ha

>  <target>  (523) 
-2.55

>  <cal>  (523) 
-0.974

$$$$
mobley_1803862
     RDKit          3D

 17 16  0  0  0  0  0  0  0  0999 V2000
   -0.2300   -0.8990   -0.6920 C   0  0  0  0  0  0  0  0  0  0  0  0
    0.4310   -0.6230   -2.0340 C   0  0  0  0  0  0  0  0  0  0  0  0
    1.9540   -0.4230   -1.9410 C   0  0  0  0  0  0  0  0  0  0  0  0
    2.6690   -1.6480   -1.3710 C   0  0  0  0  0  0  0  0  0  0  0  0
    2.5200   -0.0900   -3.3240 C   0  0  0  0  0  0  0  0  0  0  0  0
    0.0000    0.0000    0.0000 H   0  0  0  0  0  0  0  0  0  0  0  0
    0.0000    0.0000    0.0000 H   0  0  0  0  0  0  0  0  0  0  0  0
    0.0000    0.0000    0.0000 H   0  0  0  0  0  0  0  0  0  0  0  0
    0.0000    0.0000    0.0000 H   0  0  0  0  0  0  0  0  0  0  0  0
    0.0000    0.0000    0.0000 H   0  0  0  0  0  0  0  0  0  0  0  0
    0.0000    0.0000    0.0000 H   0  0  0  0  0  0  0  0  0  0  0  0
    0.0000    0.0000    0.0000 H   0  0  0  0  0  0  0  0  0  0  0  0
    0.0000    0.0000    0.0000 H   0  0  0  0  0  0  0  0  0  0  0  0
    0.0000    0.0000    0.0000 H   0  0  0  0  0  0  0  0  0  0  0  0
    0.0000    0.0000    0.0000 H   0  0  0  0  0  0  0  0  0  0  0  0
    0.0000    0.0000    0.0000 H   0  0  0  0  0  0  0  0  0  0  0  0
    0.0000    0.0000    0.0000 H   0  0  0  0  0  0  0  0  0  0  0  0
  1  2  1  0
  2  3  1  0
  3  4  1  0
  3  5  1  0
  1  6  1  0
  1  7  1  0
  1  8  1  0
  2  9  1  0
  2 10  1  0
  3 11  1  0
  4 12  1  0
  4 13  1  0
  4 14  1  0
  5 15  1  0
  5 16  1  0
  5 17  1  0
M  END
>  <partial_charges>  (524) 
-0.091899998486
-0.076099999249
-0.0665000006557
-0.0898000001907
-0.0898000001907
0.0326999984682
0.0326999984682
0.0326999984682
0.0373999997973
0.0373999997973
0.0445000007749
0.0328000001609
0.0328000001609
0.0328000001609
0.0328000001609
0.0328000001609
0.0328000001609

>  <partial_bond_orders>  (524) 
1.0
1.0
1.0
1.0
1.0
1.0
1.0
1.0
1.0
1.0
1.0
1.0
1.0
1.0
1.0
1.0

>  <atom_types>  (524) 
c3
c3
c3
c3
c3
hc
hc
hc
hc
hc
hc
hc
hc
hc
hc
hc
hc

>  <target>  (524) 
2.38

>  <cal>  (524) 
2.59

$$$$
mobley_6571751
     RDKit          3D

 19 19  0  0  0  0  0  0  0  0999 V2000
    1.4040    3.7150    1.9910 C   0  0  0  0  0  0  0  0  0  0  0  0
    0.6070    2.4540    1.8420 C   0  0  0  0  0  0  0  0  0  0  0  0
    0.1960    2.0090    0.6420 C   0  0  0  0  0  0  0  0  0  0  0  0
   -0.6330    0.7740    0.4510 C   0  0  0  0  0  0  0  0  0  0  0  0
   -1.2420    0.2490    1.7520 C   0  0  0  0  0  0  0  0  0  0  0  0
   -0.2260    0.2900    2.8870 C   0  0  0  0  0  0  0  0  0  0  0  0
    0.2910    1.7120    3.1180 C   0  0  0  0  0  0  0  0  0  0  0  0
    0.0000    0.0000    0.0000 H   0  0  0  0  0  0  0  0  0  0  0  0
    0.0000    0.0000    0.0000 H   0  0  0  0  0  0  0  0  0  0  0  0
    0.0000    0.0000    0.0000 H   0  0  0  0  0  0  0  0  0  0  0  0
    0.0000    0.0000    0.0000 H   0  0  0  0  0  0  0  0  0  0  0  0
    0.0000    0.0000    0.0000 H   0  0  0  0  0  0  0  0  0  0  0  0
    0.0000    0.0000    0.0000 H   0  0  0  0  0  0  0  0  0  0  0  0
    0.0000    0.0000    0.0000 H   0  0  0  0  0  0  0  0  0  0  0  0
    0.0000    0.0000    0.0000 H   0  0  0  0  0  0  0  0  0  0  0  0
    0.0000    0.0000    0.0000 H   0  0  0  0  0  0  0  0  0  0  0  0
    0.0000    0.0000    0.0000 H   0  0  0  0  0  0  0  0  0  0  0  0
    0.0000    0.0000    0.0000 H   0  0  0  0  0  0  0  0  0  0  0  0
    0.0000    0.0000    0.0000 H   0  0  0  0  0  0  0  0  0  0  0  0
  1  2  1  0
  2  7  1  0
  2  3  2  0
  3  4  1  0
  4  5  1  0
  5  6  1  0
  6  7  1  0
  1  8  1  0
  1  9  1  0
  1 10  1  0
  3 11  1  0
  4 12  1  0
  4 13  1  0
  5 14  1  0
  5 15  1  0
  6 16  1  0
  6 17  1  0
  7 18  1  0
  7 19  1  0
M  END
>  <partial_charges>  (525) 
-0.0593000017107
-0.115199998021
-0.171700000763
-0.0443000011146
-0.0754999965429
-0.0750999972224
-0.041700001806
0.0401000007987
0.0401000007987
0.0401000007987
0.119199998677
0.0456000007689
0.0456000007689
0.0399000011384
0.0399000011384
0.0397999994457
0.0397999994457
0.0463000014424
0.0463000014424

>  <partial_bond_orders>  (525) 
1.0
1.0
2.0
1.0
1.0
1.0
1.0
1.0
1.0
1.0
1.0
1.0
1.0
1.0
1.0
1.0
1.0
1.0
1.0

>  <atom_types>  (525) 
c3
c2
c2
c3
c3
c3
c3
hc
hc
hc
ha
hc
hc
hc
hc
hc
hc
hc
hc

>  <target>  (525) 
0.67

>  <cal>  (525) 
1.338

$$$$
mobley_2681549
     RDKit          3D

 12 12  0  0  0  0  0  0  0  0999 V2000
    1.8850   -1.0360   -0.1120 C   0  0  0  0  0  0  0  0  0  0  0  0
    2.9210   -1.6310    0.6080 C   0  0  0  0  0  0  0  0  0  0  0  0
    2.8780   -1.6520    2.0020 C   0  0  0  0  0  0  0  0  0  0  0  0
    1.8000   -1.0790    2.6760 C   0  0  0  0  0  0  0  0  0  0  0  0
    0.7640   -0.4840    1.9550 C   0  0  0  0  0  0  0  0  0  0  0  0
    0.8070   -0.4630    0.5610 C   0  0  0  0  0  0  0  0  0  0  0  0
   -0.4710    0.2710   -0.3280 Cl  0  0  0  0  0  0  0  0  0  0  0  0
    1.7470   -1.1050    4.3960 Cl  0  0  0  0  0  0  0  0  0  0  0  0
    4.2530   -2.3380   -0.2220 Cl  0  0  0  0  0  0  0  0  0  0  0  0
    0.0000    0.0000    0.0000 H   0  0  0  0  0  0  0  0  0  0  0  0
    0.0000    0.0000    0.0000 H   0  0  0  0  0  0  0  0  0  0  0  0
    0.0000    0.0000    0.0000 H   0  0  0  0  0  0  0  0  0  0  0  0
  1  6  2  0
  1  2  1  0
  2  3  2  0
  3  4  1  0
  4  5  2  0
  5  6  1  0
  6  7  1  0
  4  8  1  0
  2  9  1  0
  1 10  1  0
  3 11  1  0
  5 12  1  0
M  END
>  <partial_charges>  (526) 
-0.122299998999
0.0315000005066
-0.122199997306
0.0315000005066
-0.122199997306
0.0315000005066
-0.0741999968886
-0.0741999968886
-0.0741999968886
0.164900004864
0.164900004864
0.164900004864

>  <partial_bond_orders>  (526) 
2.0
1.0
2.0
1.0
2.0
1.0
1.0
1.0
1.0
1.0
1.0
1.0

>  <atom_types>  (526) 
ca
ca
ca
ca
ca
ca
cl
cl
cl
ha
ha
ha

>  <target>  (526) 
-0.78

>  <cal>  (526) 
0.326

$$$$
mobley_5952846
     RDKit          3D

  6  5  0  0  0  0  0  0  0  0999 V2000
    0.5210   -0.2160   -0.3650 C   0  0  0  0  0  0  0  0  0  0  0  0
   -0.5210    0.2160    0.3650 C   0  0  0  0  0  0  0  0  0  0  0  0
   -1.7160   -0.8630    1.0170 Cl  0  0  0  0  0  0  0  0  0  0  0  0
   -0.7750    1.8950    0.7290 Cl  0  0  0  0  0  0  0  0  0  0  0  0
    1.7160    0.8630   -1.0170 Cl  0  0  0  0  0  0  0  0  0  0  0  0
    0.7750   -1.8950   -0.7290 Cl  0  0  0  0  0  0  0  0  0  0  0  0
  1  2  2  0
  2  3  1  0
  2  4  1  0
  1  5  1  0
  1  6  1  0
M  END
>  <partial_charges>  (527) 
0.0628999993205
0.0628999993205
-0.0315000005066
-0.0315000005066
-0.0315000005066
-0.0315000005066

>  <partial_bond_orders>  (527) 
2.0
1.0
1.0
1.0
1.0

>  <atom_types>  (527) 
c2
c2
cl
cl
cl
cl

>  <target>  (527) 
0.1

>  <cal>  (527) 
1.328

$$$$
mobley_1821184
     RDKit          3D

 19 20  0  0  0  0  0  0  0  0999 V2000
   -4.2340    1.7080    4.5380 C   0  0  0  0  0  0  0  0  0  0  0  0
   -3.8590    0.6900    3.5360 C   0  0  0  0  0  0  0  0  0  0  0  0
   -4.5470   -0.4720    3.2740 C   0  0  0  0  0  0  0  0  0  0  0  0
   -3.8820   -1.1420    2.2820 N   0  0  0  0  0  0  0  0  0  0  0  0
   -2.7680   -0.4310    1.8940 C   0  0  0  0  0  0  0  0  0  0  0  0
   -2.7300    0.7290    2.6690 C   0  0  0  0  0  0  0  0  0  0  0  0
   -1.6770    1.6440    2.4700 C   0  0  0  0  0  0  0  0  0  0  0  0
   -0.7040    1.3640    1.5040 C   0  0  0  0  0  0  0  0  0  0  0  0
   -0.7670    0.1980    0.7450 C   0  0  0  0  0  0  0  0  0  0  0  0
   -1.8020   -0.7250    0.9250 C   0  0  0  0  0  0  0  0  0  0  0  0
    0.0000    0.0000    0.0000 H   0  0  0  0  0  0  0  0  0  0  0  0
    0.0000    0.0000    0.0000 H   0  0  0  0  0  0  0  0  0  0  0  0
    0.0000    0.0000    0.0000 H   0  0  0  0  0  0  0  0  0  0  0  0
    0.0000    0.0000    0.0000 H   0  0  0  0  0  0  0  0  0  0  0  0
    0.0000    0.0000    0.0000 H   0  0  0  0  0  0  0  0  0  0  0  0
    0.0000    0.0000    0.0000 H   0  0  0  0  0  0  0  0  0  0  0  0
    0.0000    0.0000    0.0000 H   0  0  0  0  0  0  0  0  0  0  0  0
    0.0000    0.0000    0.0000 H   0  0  0  0  0  0  0  0  0  0  0  0
    0.0000    0.0000    0.0000 H   0  0  0  0  0  0  0  0  0  0  0  0
  1  2  1  0
  2  6  1  0
  2  3  2  0
  3  4  1  0
  4  5  1  0
  5 10  1  0
  5  6  2  0
  6  7  1  0
  7  8  2  0
  8  9  1  0
  9 10  2  0
  1 11  1  0
  1 12  1  0
  1 13  1  0
  3 14  1  0
  4 15  1  0
  7 16  1  0
  8 17  1  0
  9 18  1  0
 10 19  1  0
M  END
>  <partial_charges>  (528) 
-0.0256999991834
-0.132899999619
-0.00209999992512
-0.584699988365
0.0813999995589
-0.0892999991775
-0.0806000009179
-0.160099998116
-0.113200001419
-0.146699994802
0.0390000008047
0.0390000008047
0.0390000008047
0.164800003171
0.452399998903
0.133200004697
0.128700003028
0.127599999309
0.130199998617

>  <partial_bond_orders>  (528) 
1.0
1.0
2.0
1.0
1.0
2.0
1.0
2.0
1.0
2.0
1.0
1.0
1.0
1.0
1.0
1.0
1.0
1.0
1.0
1.0

>  <atom_types>  (528) 
c3
cc
cd
na
ca
ca
ca
ca
ca
ca
hc
hc
hc
h4
hn
ha
ha
ha
ha

>  <target>  (528) 
-5.88

>  <cal>  (528) 
-8.161

$$$$
mobley_303222
     RDKit          3D

  9  8  0  0  0  0  0  0  0  0999 V2000
    0.8800   -1.4500    2.1740 C   0  0  0  0  0  0  0  0  0  0  0  0
    1.3490   -1.4450    0.7580 C   0  0  0  0  0  0  0  0  0  0  0  0
    0.8210   -0.6790   -0.2030 C   0  0  0  0  0  0  0  0  0  0  0  0
    0.0000    0.0000    0.0000 H   0  0  0  0  0  0  0  0  0  0  0  0
    0.0000    0.0000    0.0000 H   0  0  0  0  0  0  0  0  0  0  0  0
    0.0000    0.0000    0.0000 H   0  0  0  0  0  0  0  0  0  0  0  0
    0.0000    0.0000    0.0000 H   0  0  0  0  0  0  0  0  0  0  0  0
    0.0000    0.0000    0.0000 H   0  0  0  0  0  0  0  0  0  0  0  0
    0.0000    0.0000    0.0000 H   0  0  0  0  0  0  0  0  0  0  0  0
  1  2  1  0
  2  3  2  3
  1  4  1  0
  1  5  1  0
  1  6  1  0
  2  7  1  0
  3  8  1  0
  3  9  1  0
M  END
>  <partial_charges>  (529) 
-0.069200001657
-0.1643999964
-0.227099999785
0.0410000011325
0.0410000011325
0.0410000011325
0.116899996996
0.110299997032
0.110299997032

>  <partial_bond_orders>  (529) 
1.0
2.0
1.0
1.0
1.0
1.0
1.0
1.0

>  <atom_types>  (529) 
c3
c2
c2
hc
hc
hc
ha
ha
ha

>  <target>  (529) 
1.32

>  <cal>  (529) 
2.328

$$$$
mobley_1144156
     RDKit          3D

 15 14  0  0  0  0  0  0  0  0999 V2000
    0.9170    1.4500    0.5860 C   0  0  0  0  0  0  0  0  0  0  0  0
    1.9100    0.9130   -0.4220 C   0  0  0  0  0  0  0  0  0  0  0  0
    1.5170    1.3240   -1.7230 O   0  0  0  0  0  0  0  0  0  0  0  0
    2.4160    0.8470   -2.7160 C   0  0  0  0  0  0  0  0  0  0  0  0
    1.9420    1.3180   -4.0740 C   0  0  0  0  0  0  0  0  0  0  0  0
    0.0000    0.0000    0.0000 H   0  0  0  0  0  0  0  0  0  0  0  0
    0.0000    0.0000    0.0000 H   0  0  0  0  0  0  0  0  0  0  0  0
    0.0000    0.0000    0.0000 H   0  0  0  0  0  0  0  0  0  0  0  0
    0.0000    0.0000    0.0000 H   0  0  0  0  0  0  0  0  0  0  0  0
    0.0000    0.0000    0.0000 H   0  0  0  0  0  0  0  0  0  0  0  0
    0.0000    0.0000    0.0000 H   0  0  0  0  0  0  0  0  0  0  0  0
    0.0000    0.0000    0.0000 H   0  0  0  0  0  0  0  0  0  0  0  0
    0.0000    0.0000    0.0000 H   0  0  0  0  0  0  0  0  0  0  0  0
    0.0000    0.0000    0.0000 H   0  0  0  0  0  0  0  0  0  0  0  0
    0.0000    0.0000    0.0000 H   0  0  0  0  0  0  0  0  0  0  0  0
  1  2  1  0
  2  3  1  0
  3  4  1  0
  4  5  1  0
  1  6  1  0
  1  7  1  0
  1  8  1  0
  2  9  1  0
  2 10  1  0
  4 11  1  0
  4 12  1  0
  5 13  1  0
  5 14  1  0
  5 15  1  0
M  END
>  <partial_charges>  (530) 
-0.0962999984622
0.129199996591
-0.423500001431
0.129199996591
-0.0962999984622
0.0447000004351
0.0447000004351
0.0447000004351
0.0223999992013
0.0223999992013
0.0223999992013
0.0223999992013
0.0447000004351
0.0447000004351
0.0447000004351

>  <partial_bond_orders>  (530) 
1.0
1.0
1.0
1.0
1.0
1.0
1.0
1.0
1.0
1.0
1.0
1.0
1.0
1.0

>  <atom_types>  (530) 
c3
c3
os
c3
c3
hc
hc
hc
h1
h1
h1
h1
hc
hc
hc

>  <target>  (530) 
-1.59

>  <cal>  (530) 
-0.617

$$$$
mobley_1723043
     RDKit          3D

 12 12  0  0  0  0  0  0  0  0999 V2000
   -0.0660    0.9410   -0.5300 C   0  0  0  0  0  0  0  0  0  0  0  0
   -0.8290   -0.4040   -0.5660 C   0  0  0  0  0  0  0  0  0  0  0  0
   -0.1010   -0.7770    0.7470 C   0  0  0  0  0  0  0  0  0  0  0  0
    0.9960    0.2390    0.3490 C   0  0  0  0  0  0  0  0  0  0  0  0
    2.0480   -0.2820   -0.3230 F   0  0  0  0  0  0  0  0  0  0  0  0
    1.5030    0.9790    1.3590 F   0  0  0  0  0  0  0  0  0  0  0  0
    0.3000   -2.0630    0.8500 F   0  0  0  0  0  0  0  0  0  0  0  0
   -0.7750   -0.4830    1.8830 F   0  0  0  0  0  0  0  0  0  0  0  0
   -0.5500   -1.1970   -1.6260 F   0  0  0  0  0  0  0  0  0  0  0  0
   -2.1750   -0.3160   -0.4860 F   0  0  0  0  0  0  0  0  0  0  0  0
   -0.7240    1.9620    0.0660 F   0  0  0  0  0  0  0  0  0  0  0  0
    0.3720    1.4000   -1.7230 F   0  0  0  0  0  0  0  0  0  0  0  0
  1  4  1  0
  1  2  1  0
  2  3  1  0
  3  4  1  0
  4  5  1  0
  4  6  1  0
  3  7  1  0
  3  8  1  0
  2  9  1  0
  2 10  1  0
  1 11  1  0
  1 12  1  0
M  END
>  <partial_charges>  (531) 
0.345899999142
0.345999985933
0.345999985933
0.345999985933
-0.172999992967
-0.172999992967
-0.172999992967
-0.172999992967
-0.172999992967
-0.172999992967
-0.172999992967
-0.172999992967

>  <partial_bond_orders>  (531) 
1.0
1.0
1.0
1.0
1.0
1.0
1.0
1.0
1.0
1.0
1.0
1.0

>  <atom_types>  (531) 
cy
cy
cy
cy
f
f
f
f
f
f
f
f

>  <target>  (531) 
3.43

>  <cal>  (531) 
3.077

$$$$
mobley_2844990
     RDKit          3D

 22 24  0  0  0  0  0  0  0  0999 V2000
   -1.0040   -0.2570    0.3260 C   0  0  0  0  0  0  0  0  0  0  0  0
   -1.4370   -1.5820    0.2690 C   0  0  0  0  0  0  0  0  0  0  0  0
   -2.7270   -1.9050    0.6890 C   0  0  0  0  0  0  0  0  0  0  0  0
   -3.5800   -0.9100    1.1630 C   0  0  0  0  0  0  0  0  0  0  0  0
   -3.1490    0.4150    1.2200 C   0  0  0  0  0  0  0  0  0  0  0  0
   -1.8580    0.7400    0.8000 C   0  0  0  0  0  0  0  0  0  0  0  0
   -1.3200    2.3740    0.8640 Cl  0  0  0  0  0  0  0  0  0  0  0  0
   -4.8560   -1.1830    1.5850 O   0  0  0  0  0  0  0  0  0  0  0  0
   -5.2390   -2.4980    1.5120 C   0  0  0  0  0  0  0  0  0  0  0  0
   -6.5290   -2.8210    1.9320 C   0  0  0  0  0  0  0  0  0  0  0  0
   -6.9620   -4.1460    1.8750 C   0  0  0  0  0  0  0  0  0  0  0  0
   -6.1070   -5.1430    1.4010 C   0  0  0  0  0  0  0  0  0  0  0  0
   -4.8170   -4.8180    0.9820 C   0  0  0  0  0  0  0  0  0  0  0  0
   -4.3860   -3.4940    1.0380 C   0  0  0  0  0  0  0  0  0  0  0  0
   -3.1090   -3.2200    0.6160 O   0  0  0  0  0  0  0  0  0  0  0  0
   -3.7290   -6.0340    0.3830 Cl  0  0  0  0  0  0  0  0  0  0  0  0
   -6.6600   -6.7920    1.3340 Cl  0  0  0  0  0  0  0  0  0  0  0  0
   -8.5740   -4.4760    2.4110 Cl  0  0  0  0  0  0  0  0  0  0  0  0
    0.0000    0.0000    0.0000 H   0  0  0  0  0  0  0  0  0  0  0  0
    0.0000    0.0000    0.0000 H   0  0  0  0  0  0  0  0  0  0  0  0
    0.0000    0.0000    0.0000 H   0  0  0  0  0  0  0  0  0  0  0  0
    0.0000    0.0000    0.0000 H   0  0  0  0  0  0  0  0  0  0  0  0
  1  6  2  0
  1  2  1  0
  2  3  2  0
  3 15  1  0
  3  4  1  0
  4  5  2  0
  5  6  1  0
  6  7  1  0
  4  8  1  0
  8  9  1  0
  9 14  2  0
  9 10  1  0
 10 11  2  0
 11 12  1  0
 12 13  2  0
 13 14  1  0
 14 15  1  0
 13 16  1  0
 12 17  1  0
 11 18  1  0
  1 19  1  0
  2 20  1  0
  5 21  1  0
 10 22  1  0
M  END
>  <partial_charges>  (532) 
-0.118400000036
-0.103699997067
0.0597999989986
0.0697999969125
-0.109700001776
0.0188999995589
-0.0758000016212
-0.215100005269
0.0791999995708
-0.107900001109
0.025399999693
0.01600000076
0.0303000006825
0.0754000023007
-0.203700006008
-0.0270000007004
-0.0359000004828
-0.048900000751
0.158099994063
0.164199993014
0.171700000763
0.177300006151

>  <partial_bond_orders>  (532) 
2.0
1.0
2.0
1.0
1.0
2.0
1.0
1.0
1.0
1.0
2.0
1.0
2.0
1.0
2.0
1.0
1.0
1.0
1.0
1.0
1.0
1.0
1.0
1.0

>  <atom_types>  (532) 
ca
ca
ca
ca
ca
ca
cl
os
ca
ca
ca
ca
ca
ca
os
cl
cl
cl
ha
ha
ha
ha

>  <target>  (532) 
-3.84

>  <cal>  (532) 
-2.66

$$$$
mobley_2923700
     RDKit          3D

 19 19  0  0  0  0  0  0  0  0999 V2000
    1.2630   -2.2420   -2.2060 C   0  0  0  0  0  0  0  0  0  0  0  0
    1.9290   -1.0150   -1.6030 C   0  0  0  0  0  0  0  0  0  0  0  0
    1.8850   -1.0360   -0.1120 C   0  0  0  0  0  0  0  0  0  0  0  0
    2.9210   -1.6310    0.6080 C   0  0  0  0  0  0  0  0  0  0  0  0
    2.8780   -1.6520    2.0020 C   0  0  0  0  0  0  0  0  0  0  0  0
    1.8000   -1.0790    2.6760 C   0  0  0  0  0  0  0  0  0  0  0  0
    0.7640   -0.4840    1.9550 C   0  0  0  0  0  0  0  0  0  0  0  0
    0.8070   -0.4630    0.5610 C   0  0  0  0  0  0  0  0  0  0  0  0
    1.7580   -1.1000    4.0360 O   0  0  0  0  0  0  0  0  0  0  0  0
    0.0000    0.0000    0.0000 H   0  0  0  0  0  0  0  0  0  0  0  0
    0.0000    0.0000    0.0000 H   0  0  0  0  0  0  0  0  0  0  0  0
    0.0000    0.0000    0.0000 H   0  0  0  0  0  0  0  0  0  0  0  0
    0.0000    0.0000    0.0000 H   0  0  0  0  0  0  0  0  0  0  0  0
    0.0000    0.0000    0.0000 H   0  0  0  0  0  0  0  0  0  0  0  0
    0.0000    0.0000    0.0000 H   0  0  0  0  0  0  0  0  0  0  0  0
    0.0000    0.0000    0.0000 H   0  0  0  0  0  0  0  0  0  0  0  0
    0.0000    0.0000    0.0000 H   0  0  0  0  0  0  0  0  0  0  0  0
    0.0000    0.0000    0.0000 H   0  0  0  0  0  0  0  0  0  0  0  0
    0.0000    0.0000    0.0000 H   0  0  0  0  0  0  0  0  0  0  0  0
  1  2  1  0
  2  3  1  0
  3  8  2  0
  3  4  1  0
  4  5  2  0
  5  6  1  0
  6  7  2  0
  7  8  1  0
  6  9  1  0
  1 10  1  0
  1 11  1  0
  1 12  1  0
  2 13  1  0
  2 14  1  0
  4 15  1  0
  5 16  1  0
  7 17  1  0
  8 18  1  0
  9 19  1  0
M  END
>  <partial_charges>  (533) 
-0.0900000035763
-0.0335999988019
-0.112400002778
-0.0920000001788
-0.182799994946
0.119599997997
-0.182799994946
-0.0920000001788
-0.498800009489
0.03579999879
0.03579999879
0.03579999879
0.0450999997556
0.0450999997556
0.13369999826
0.141000002623
0.141000002623
0.13369999826
0.417800009251

>  <partial_bond_orders>  (533) 
1.0
1.0
2.0
1.0
2.0
1.0
2.0
1.0
1.0
1.0
1.0
1.0
1.0
1.0
1.0
1.0
1.0
1.0
1.0

>  <atom_types>  (533) 
c3
c3
ca
ca
ca
ca
ca
ca
oh
hc
hc
hc
hc
hc
ha
ha
ha
ha
ho

>  <target>  (533) 
-6.13

>  <cal>  (533) 
-5.453

$$$$
mobley_337666
     RDKit          3D

 12 12  0  0  0  0  0  0  0  0999 V2000
   -0.1500   -1.0050   -1.1470 C   0  0  0  0  0  0  0  0  0  0  0  0
    0.9500   -0.7080   -0.4570 C   0  0  0  0  0  0  0  0  0  0  0  0
    0.9160    0.2930    0.6250 C   0  0  0  0  0  0  0  0  0  0  0  0
    1.9220    0.5740    1.2690 O   0  0  0  0  0  0  0  0  0  0  0  0
   -0.3370    0.8620    0.8270 N   0  0  0  0  0  0  0  0  0  0  0  0
   -1.5060    0.5640    0.1140 C   0  0  0  0  0  0  0  0  0  0  0  0
   -2.5840    1.1090    0.3490 O   0  0  0  0  0  0  0  0  0  0  0  0
   -1.3460   -0.3960   -0.8800 N   0  0  0  0  0  0  0  0  0  0  0  0
    2.1370   -1.2930   -0.7010 F   0  0  0  0  0  0  0  0  0  0  0  0
    0.0000    0.0000    0.0000 H   0  0  0  0  0  0  0  0  0  0  0  0
    0.0000    0.0000    0.0000 H   0  0  0  0  0  0  0  0  0  0  0  0
    0.0000    0.0000    0.0000 H   0  0  0  0  0  0  0  0  0  0  0  0
  1  8  1  0
  1  2  2  0
  2  3  1  0
  3  4  2  0
  3  5  1  0
  5  6  1  0
  6  7  2  0
  6  8  1  0
  2  9  1  0
  1 10  1  0
  5 11  1  0
  8 12  1  0
M  END
>  <partial_charges>  (534) 
-0.00159999995958
-0.0269000008702
0.700500011444
-0.576600015163
-0.581900000572
0.803499996662
-0.626600027084
-0.460700005293
-0.128999993205
0.17689999938
0.360100001097
0.362300008535

>  <partial_bond_orders>  (534) 
1.0
2.0
1.0
2.0
1.0
1.0
2.0
1.0
1.0
1.0
1.0
1.0

>  <atom_types>  (534) 
cc
cd
c
o
n
c
o
n
f
h4
hn
hn

>  <target>  (534) 
-16.92

>  <cal>  (534) 
-16.371

$$$$
mobley_1905088
     RDKit          3D

 15 15  0  0  0  0  0  0  0  0999 V2000
    1.8850   -1.0360   -0.1120 C   0  0  0  0  0  0  0  0  0  0  0  0
    2.9210   -1.6310    0.6080 C   0  0  0  0  0  0  0  0  0  0  0  0
    2.8780   -1.6520    2.0020 C   0  0  0  0  0  0  0  0  0  0  0  0
    1.8000   -1.0790    2.6760 C   0  0  0  0  0  0  0  0  0  0  0  0
    0.7640   -0.4840    1.9550 C   0  0  0  0  0  0  0  0  0  0  0  0
    0.8070   -0.4630    0.5610 C   0  0  0  0  0  0  0  0  0  0  0  0
    1.7550   -1.1010    4.1660 C   0  0  0  0  0  0  0  0  0  0  0  0
    2.6200    0.4930    4.8680 Br  0  0  0  0  0  0  0  0  0  0  0  0
    0.0000    0.0000    0.0000 H   0  0  0  0  0  0  0  0  0  0  0  0
    0.0000    0.0000    0.0000 H   0  0  0  0  0  0  0  0  0  0  0  0
    0.0000    0.0000    0.0000 H   0  0  0  0  0  0  0  0  0  0  0  0
    0.0000    0.0000    0.0000 H   0  0  0  0  0  0  0  0  0  0  0  0
    0.0000    0.0000    0.0000 H   0  0  0  0  0  0  0  0  0  0  0  0
    0.0000    0.0000    0.0000 H   0  0  0  0  0  0  0  0  0  0  0  0
    0.0000    0.0000    0.0000 H   0  0  0  0  0  0  0  0  0  0  0  0
  1  6  2  0
  1  2  1  0
  2  3  2  0
  3  4  1  0
  4  5  2  0
  5  6  1  0
  4  7  1  0
  7  8  1  0
  1  9  1  0
  2 10  1  0
  3 11  1  0
  5 12  1  0
  6 13  1  0
  7 14  1  0
  7 15  1  0
M  END
>  <partial_charges>  (535) 
-0.120999999344
-0.129399999976
-0.111900001764
-0.0930000022054
-0.111900001764
-0.129399999976
0.0395000018179
-0.173099994659
0.133100003004
0.134299993515
0.135199993849
0.135199993849
0.134299993515
0.0790999978781
0.0790999978781

>  <partial_bond_orders>  (535) 
2.0
1.0
2.0
1.0
2.0
1.0
1.0
1.0
1.0
1.0
1.0
1.0
1.0
1.0
1.0

>  <atom_types>  (535) 
ca
ca
ca
ca
ca
ca
c3
br
ha
ha
ha
ha
ha
h1
h1

>  <target>  (535) 
-2.38

>  <cal>  (535) 
-1.853

$$$$
mobley_7893124
     RDKit          3D

 24 24  0  0  0  0  0  0  0  0999 V2000
   -1.0060    0.0250   -0.4340 C   0  0  0  0  0  0  0  0  0  0  0  0
   -2.0900    0.3300    0.6220 C   0  0  0  0  0  0  0  0  0  0  0  0
   -1.7780    1.6830    1.2950 C   0  0  0  0  0  0  0  0  0  0  0  0
   -3.4290    0.4950   -0.1340 C   0  0  0  0  0  0  0  0  0  0  0  0
   -2.1080   -0.7840    1.6810 C   0  0  0  0  0  0  0  0  0  0  0  0
   -3.2650   -1.5360    1.8840 C   0  0  0  0  0  0  0  0  0  0  0  0
   -3.2810   -2.5460    2.8460 C   0  0  0  0  0  0  0  0  0  0  0  0
   -2.1400   -2.8050    3.6040 C   0  0  0  0  0  0  0  0  0  0  0  0
   -0.9820   -2.0530    3.4020 C   0  0  0  0  0  0  0  0  0  0  0  0
   -0.9660   -1.0430    2.4400 C   0  0  0  0  0  0  0  0  0  0  0  0
    0.0000    0.0000    0.0000 H   0  0  0  0  0  0  0  0  0  0  0  0
    0.0000    0.0000    0.0000 H   0  0  0  0  0  0  0  0  0  0  0  0
    0.0000    0.0000    0.0000 H   0  0  0  0  0  0  0  0  0  0  0  0
    0.0000    0.0000    0.0000 H   0  0  0  0  0  0  0  0  0  0  0  0
    0.0000    0.0000    0.0000 H   0  0  0  0  0  0  0  0  0  0  0  0
    0.0000    0.0000    0.0000 H   0  0  0  0  0  0  0  0  0  0  0  0
    0.0000    0.0000    0.0000 H   0  0  0  0  0  0  0  0  0  0  0  0
    0.0000    0.0000    0.0000 H   0  0  0  0  0  0  0  0  0  0  0  0
    0.0000    0.0000    0.0000 H   0  0  0  0  0  0  0  0  0  0  0  0
    0.0000    0.0000    0.0000 H   0  0  0  0  0  0  0  0  0  0  0  0
    0.0000    0.0000    0.0000 H   0  0  0  0  0  0  0  0  0  0  0  0
    0.0000    0.0000    0.0000 H   0  0  0  0  0  0  0  0  0  0  0  0
    0.0000    0.0000    0.0000 H   0  0  0  0  0  0  0  0  0  0  0  0
    0.0000    0.0000    0.0000 H   0  0  0  0  0  0  0  0  0  0  0  0
  1  2  1  0
  2  3  1  0
  2  4  1  0
  2  5  1  0
  5 10  2  0
  5  6  1  0
  6  7  2  0
  7  8  1  0
  8  9  2  0
  9 10  1  0
  1 11  1  0
  1 12  1  0
  1 13  1  0
  3 14  1  0
  3 15  1  0
  3 16  1  0
  4 17  1  0
  4 18  1  0
  4 19  1  0
  6 20  1  0
  7 21  1  0
  8 22  1  0
  9 23  1  0
 10 24  1  0
M  END
>  <partial_charges>  (536) 
-0.0856999978423
-0.0097000002861
-0.0856999978423
-0.0856999978423
-0.0630000010133
-0.128199994564
-0.130500003695
-0.13369999826
-0.130500003695
-0.128199994564
0.0366999991238
0.0366999991238
0.0366999991238
0.0366999991238
0.0366999991238
0.0366999991238
0.0366999991238
0.0366999991238
0.0366999991238
0.130899995565
0.129399999976
0.130199998617
0.129399999976
0.130899995565

>  <partial_bond_orders>  (536) 
1.0
1.0
1.0
1.0
2.0
1.0
2.0
1.0
2.0
1.0
1.0
1.0
1.0
1.0
1.0
1.0
1.0
1.0
1.0
1.0
1.0
1.0
1.0
1.0

>  <atom_types>  (536) 
c3
c3
c3
c3
ca
ca
ca
ca
ca
ca
hc
hc
hc
hc
hc
hc
hc
hc
hc
ha
ha
ha
ha
ha

>  <target>  (536) 
-0.44

>  <cal>  (536) 
-0.803

$$$$
mobley_7708038
     RDKit          3D

 11 10  0  0  0  0  0  0  0  0999 V2000
    0.5290    0.1910    1.2270 C   0  0  0  0  0  0  0  0  0  0  0  0
   -0.0470    0.5610   -0.1300 C   0  0  0  0  0  0  0  0  0  0  0  0
   -0.4090   -0.6770   -0.9300 C   0  0  0  0  0  0  0  0  0  0  0  0
   -1.1420   -0.1560   -2.6570 Br  0  0  0  0  0  0  0  0  0  0  0  0
    0.0000    0.0000    0.0000 H   0  0  0  0  0  0  0  0  0  0  0  0
    0.0000    0.0000    0.0000 H   0  0  0  0  0  0  0  0  0  0  0  0
    0.0000    0.0000    0.0000 H   0  0  0  0  0  0  0  0  0  0  0  0
    0.0000    0.0000    0.0000 H   0  0  0  0  0  0  0  0  0  0  0  0
    0.0000    0.0000    0.0000 H   0  0  0  0  0  0  0  0  0  0  0  0
    0.0000    0.0000    0.0000 H   0  0  0  0  0  0  0  0  0  0  0  0
    0.0000    0.0000    0.0000 H   0  0  0  0  0  0  0  0  0  0  0  0
  1  2  1  0
  2  3  1  0
  3  4  1  0
  1  5  1  0
  1  6  1  0
  1  7  1  0
  2  8  1  0
  2  9  1  0
  3 10  1  0
  3 11  1  0
M  END
>  <partial_charges>  (537) 
-0.0951000005007
-0.0832000002265
-0.00710000004619
-0.180500000715
0.0377999991179
0.0377999991179
0.0377999991179
0.0546000003815
0.0546000003815
0.0718000009656
0.0718000009656

>  <partial_bond_orders>  (537) 
1.0
1.0
1.0
1.0
1.0
1.0
1.0
1.0
1.0
1.0

>  <atom_types>  (537) 
c3
c3
c3
br
hc
hc
hc
hc
hc
h1
h1

>  <target>  (537) 
-0.56

>  <cal>  (537) 
0.579

$$$$
mobley_5157661
     RDKit          3D

 14 13  0  0  0  0  0  0  0  0999 V2000
    0.6620   -0.3790   -0.7850 C   0  0  0  0  0  0  0  0  0  0  0  0
    0.1010   -0.0600   -2.1690 C   0  0  0  0  0  0  0  0  0  0  0  0
   -0.0690    1.4480   -2.3440 C   0  0  0  0  0  0  0  0  0  0  0  0
    1.0050   -0.6290   -3.2600 C   0  0  0  0  0  0  0  0  0  0  0  0
    0.0000    0.0000    0.0000 H   0  0  0  0  0  0  0  0  0  0  0  0
    0.0000    0.0000    0.0000 H   0  0  0  0  0  0  0  0  0  0  0  0
    0.0000    0.0000    0.0000 H   0  0  0  0  0  0  0  0  0  0  0  0
    0.0000    0.0000    0.0000 H   0  0  0  0  0  0  0  0  0  0  0  0
    0.0000    0.0000    0.0000 H   0  0  0  0  0  0  0  0  0  0  0  0
    0.0000    0.0000    0.0000 H   0  0  0  0  0  0  0  0  0  0  0  0
    0.0000    0.0000    0.0000 H   0  0  0  0  0  0  0  0  0  0  0  0
    0.0000    0.0000    0.0000 H   0  0  0  0  0  0  0  0  0  0  0  0
    0.0000    0.0000    0.0000 H   0  0  0  0  0  0  0  0  0  0  0  0
    0.0000    0.0000    0.0000 H   0  0  0  0  0  0  0  0  0  0  0  0
  1  2  1  0
  2  3  1  0
  2  4  1  0
  1  5  1  0
  1  6  1  0
  1  7  1  0
  2  8  1  0
  3  9  1  0
  3 10  1  0
  3 11  1  0
  4 12  1  0
  4 13  1  0
  4 14  1  0
M  END
>  <partial_charges>  (538) 
-0.0895999968052
-0.0705000013113
-0.0895999968052
-0.0895999968052
0.0328000001609
0.0328000001609
0.0328000001609
0.0443000011146
0.0328000001609
0.0328000001609
0.0328000001609
0.0328000001609
0.0328000001609
0.0328000001609

>  <partial_bond_orders>  (538) 
1.0
1.0
1.0
1.0
1.0
1.0
1.0
1.0
1.0
1.0
1.0
1.0
1.0

>  <atom_types>  (538) 
c3
c3
c3
c3
hc
hc
hc
hc
hc
hc
hc
hc
hc
hc

>  <target>  (538) 
2.3

>  <cal>  (538) 
2.535

$$$$
mobley_3047364
     RDKit          3D

 32 32  0  0  0  0  0  0  0  0999 V2000
   -1.5390   -1.5580   -4.8540 C   0  0  0  0  0  0  0  0  0  0  0  0
   -0.3280   -2.1380   -4.2060 C   0  0  0  0  0  0  0  0  0  0  0  0
   -0.1520   -1.6180   -2.8710 N   0  0  0  0  0  0  0  0  0  0  0  0
    0.9110   -1.9890   -2.0190 C   0  0  0  0  0  0  0  0  0  0  0  0
    0.9400   -1.4170   -0.8050 N   0  0  0  0  0  0  0  0  0  0  0  0
    1.9760   -1.8180   -0.0510 C   0  0  0  0  0  0  0  0  0  0  0  0
    2.9300   -2.6960   -0.4020 N   0  0  0  0  0  0  0  0  0  0  0  0
    2.7730   -3.1850   -1.6430 C   0  0  0  0  0  0  0  0  0  0  0  0
    1.7920   -2.8790   -2.5070 N   0  0  0  0  0  0  0  0  0  0  0  0
    3.9910   -4.3590   -2.2000 S   0  0  0  0  0  0  0  0  0  0  0  0
    5.4230   -3.7750   -1.2680 C   0  0  0  0  0  0  0  0  0  0  0  0
    2.0720   -1.2700    1.2180 N   0  0  0  0  0  0  0  0  0  0  0  0
    3.1530   -1.6020    2.1780 C   0  0  0  0  0  0  0  0  0  0  0  0
    2.6160   -1.4730    3.5960 C   0  0  0  0  0  0  0  0  0  0  0  0
    4.3320   -0.6700    1.9350 C   0  0  0  0  0  0  0  0  0  0  0  0
    0.0000    0.0000    0.0000 H   0  0  0  0  0  0  0  0  0  0  0  0
    0.0000    0.0000    0.0000 H   0  0  0  0  0  0  0  0  0  0  0  0
    0.0000    0.0000    0.0000 H   0  0  0  0  0  0  0  0  0  0  0  0
    0.0000    0.0000    0.0000 H   0  0  0  0  0  0  0  0  0  0  0  0
    0.0000    0.0000    0.0000 H   0  0  0  0  0  0  0  0  0  0  0  0
    0.0000    0.0000    0.0000 H   0  0  0  0  0  0  0  0  0  0  0  0
    0.0000    0.0000    0.0000 H   0  0  0  0  0  0  0  0  0  0  0  0
    0.0000    0.0000    0.0000 H   0  0  0  0  0  0  0  0  0  0  0  0
    0.0000    0.0000    0.0000 H   0  0  0  0  0  0  0  0  0  0  0  0
    0.0000    0.0000    0.0000 H   0  0  0  0  0  0  0  0  0  0  0  0
    0.0000    0.0000    0.0000 H   0  0  0  0  0  0  0  0  0  0  0  0
    0.0000    0.0000    0.0000 H   0  0  0  0  0  0  0  0  0  0  0  0
    0.0000    0.0000    0.0000 H   0  0  0  0  0  0  0  0  0  0  0  0
    0.0000    0.0000    0.0000 H   0  0  0  0  0  0  0  0  0  0  0  0
    0.0000    0.0000    0.0000 H   0  0  0  0  0  0  0  0  0  0  0  0
    0.0000    0.0000    0.0000 H   0  0  0  0  0  0  0  0  0  0  0  0
    0.0000    0.0000    0.0000 H   0  0  0  0  0  0  0  0  0  0  0  0
  1  2  1  0
  2  3  1  0
  3  4  1  0
  4  9  2  0
  4  5  1  0
  5  6  2  0
  6  7  1  0
  7  8  2  0
  8  9  1  0
  8 10  1  0
 10 11  1  0
  6 12  1  0
 12 13  1  0
 13 14  1  0
 13 15  1  0
  1 16  1  0
  1 17  1  0
  1 18  1  0
  2 19  1  0
  2 20  1  0
  3 21  1  0
 11 22  1  0
 11 23  1  0
 11 24  1  0
 12 25  1  0
 13 26  1  0
 14 27  1  0
 14 28  1  0
 14 29  1  0
 15 30  1  0
 15 31  1  0
 15 32  1  0
M  END
>  <partial_charges>  (539) 
-0.131600007415
0.193599998951
-0.808300018311
0.903900027275
-0.822600007057
0.920700013638
-0.780200004578
0.800999999046
-0.818700015545
-0.24169999361
-0.061400000006
-0.843900024891
0.230800002813
-0.11630000174
-0.11630000174
0.0452000014484
0.0452000014484
0.0452000014484
0.062199998647
0.062199998647
0.416099995375
0.0741000026464
0.0741000026464
0.0741000026464
0.440699994564
0.0750999972224
0.0461000017822
0.0461000017822
0.0461000017822
0.0461000017822
0.0461000017822
0.0461000017822

>  <partial_bond_orders>  (539) 
1.0
1.0
1.0
2.0
1.0
2.0
1.0
2.0
1.0
1.0
1.0
1.0
1.0
1.0
1.0
1.0
1.0
1.0
1.0
1.0
1.0
1.0
1.0
1.0
1.0
1.0
1.0
1.0
1.0
1.0
1.0
1.0

>  <atom_types>  (539) 
c3
c3
nh
ca
nb
ca
nb
ca
nb
ss
c3
nh
c3
c3
c3
hc
hc
hc
h1
h1
hn
h1
h1
h1
hn
h1
hc
hc
hc
hc
hc
hc

>  <target>  (539) 
-7.65

>  <cal>  (539) 
-10.552

$$$$
mobley_5561855
     RDKit          3D

 22 23  0  0  0  0  0  0  0  0999 V2000
    1.8850   -1.0360   -0.1120 C   0  0  0  0  0  0  0  0  0  0  0  0
    2.9210   -1.6310    0.6080 C   0  0  0  0  0  0  0  0  0  0  0  0
    2.8780   -1.6520    2.0020 C   0  0  0  0  0  0  0  0  0  0  0  0
    1.8000   -1.0790    2.6760 C   0  0  0  0  0  0  0  0  0  0  0  0
    0.7640   -0.4840    1.9550 C   0  0  0  0  0  0  0  0  0  0  0  0
    0.8070   -0.4630    0.5610 C   0  0  0  0  0  0  0  0  0  0  0  0
   -0.6020    0.2450    2.7290 Cl  0  0  0  0  0  0  0  0  0  0  0  0
    1.7550   -1.1010    4.1300 C   0  0  0  0  0  0  0  0  0  0  0  0
    1.1500   -2.1690    4.7930 C   0  0  0  0  0  0  0  0  0  0  0  0
    1.1070   -2.1900    6.1870 C   0  0  0  0  0  0  0  0  0  0  0  0
    1.6690   -1.1440    6.9180 C   0  0  0  0  0  0  0  0  0  0  0  0
    2.2740   -0.0760    6.2550 C   0  0  0  0  0  0  0  0  0  0  0  0
    2.3170   -0.0540    4.8610 C   0  0  0  0  0  0  0  0  0  0  0  0
    3.0820    1.2990    4.0990 Cl  0  0  0  0  0  0  0  0  0  0  0  0
    1.6180   -1.1720    8.6380 Cl  0  0  0  0  0  0  0  0  0  0  0  0
    0.4350   -3.4980    3.9450 Cl  0  0  0  0  0  0  0  0  0  0  0  0
    4.1950   -2.4050    2.8370 Cl  0  0  0  0  0  0  0  0  0  0  0  0
    0.0000    0.0000    0.0000 H   0  0  0  0  0  0  0  0  0  0  0  0
    0.0000    0.0000    0.0000 H   0  0  0  0  0  0  0  0  0  0  0  0
    0.0000    0.0000    0.0000 H   0  0  0  0  0  0  0  0  0  0  0  0
    0.0000    0.0000    0.0000 H   0  0  0  0  0  0  0  0  0  0  0  0
    0.0000    0.0000    0.0000 H   0  0  0  0  0  0  0  0  0  0  0  0
  1  6  2  0
  1  2  1  0
  2  3  2  0
  3  4  1  0
  4  5  2  0
  5  6  1  0
  5  7  1  0
  4  8  1  0
  8 13  1  0
  8  9  2  0
  9 10  1  0
 10 11  2  0
 11 12  1  0
 12 13  2  0
 13 14  1  0
 11 15  1  0
  9 16  1  0
  3 17  1  0
  1 18  1  0
  2 19  1  0
  6 20  1  0
 10 21  1  0
 12 22  1  0
M  END
>  <partial_charges>  (540) 
-0.104500003159
-0.128700003028
0.0496000014246
-0.0384999997914
0.0496000014246
-0.128700003028
-0.0711999982595
-0.0346000008285
0.0557000003755
-0.126599997282
0.0383000001311
-0.126599997282
0.0557000003755
-0.0631999969482
-0.0750999972224
-0.0631999969482
-0.0711999982595
0.143800005317
0.152899995446
0.152899995446
0.166800007224
0.166800007224

>  <partial_bond_orders>  (540) 
2.0
1.0
2.0
1.0
2.0
1.0
1.0
1.0
2.0
1.0
2.0
1.0
2.0
1.0
1.0
1.0
1.0
1.0
1.0
1.0
1.0
1.0
1.0

>  <atom_types>  (540) 
ca
ca
ca
cp
ca
ca
cl
cp
ca
ca
ca
ca
ca
cl
cl
cl
cl
ha
ha
ha
ha
ha

>  <target>  (540) 
-1.96

>  <cal>  (540) 
-0.477

$$$$
mobley_9209581
     RDKit          3D

 13 12  0  0  0  0  0  0  0  0999 V2000
   -0.2720   -0.2550    1.0310 C   0  0  0  0  0  0  0  0  0  0  0  0
    0.9010   -0.5170    1.8640 N   0  0  0  0  0  0  0  0  0  0  0  0
    1.7510    0.6710    1.9380 C   0  0  0  0  0  0  0  0  0  0  0  0
    1.6570   -1.6540    1.3400 C   0  0  0  0  0  0  0  0  0  0  0  0
    0.0000    0.0000    0.0000 H   0  0  0  0  0  0  0  0  0  0  0  0
    0.0000    0.0000    0.0000 H   0  0  0  0  0  0  0  0  0  0  0  0
    0.0000    0.0000    0.0000 H   0  0  0  0  0  0  0  0  0  0  0  0
    0.0000    0.0000    0.0000 H   0  0  0  0  0  0  0  0  0  0  0  0
    0.0000    0.0000    0.0000 H   0  0  0  0  0  0  0  0  0  0  0  0
    0.0000    0.0000    0.0000 H   0  0  0  0  0  0  0  0  0  0  0  0
    0.0000    0.0000    0.0000 H   0  0  0  0  0  0  0  0  0  0  0  0
    0.0000    0.0000    0.0000 H   0  0  0  0  0  0  0  0  0  0  0  0
    0.0000    0.0000    0.0000 H   0  0  0  0  0  0  0  0  0  0  0  0
  1  2  1  0
  2  3  1  0
  2  4  1  0
  1  5  1  0
  1  6  1  0
  1  7  1  0
  3  8  1  0
  3  9  1  0
  3 10  1  0
  4 11  1  0
  4 12  1  0
  4 13  1  0
M  END
>  <partial_charges>  (541) 
0.15340000391
-0.733900010586
0.15340000391
0.15340000391
0.0304000005126
0.0304000005126
0.0304000005126
0.0304000005126
0.0304000005126
0.0304000005126
0.0304000005126
0.0304000005126
0.0304000005126

>  <partial_bond_orders>  (541) 
1.0
1.0
1.0
1.0
1.0
1.0
1.0
1.0
1.0
1.0
1.0
1.0

>  <atom_types>  (541) 
c3
n3
c3
c3
h1
h1
h1
h1
h1
h1
h1
h1
h1

>  <target>  (541) 
-3.2

>  <cal>  (541) 
-2.636

$$$$
mobley_7983227
     RDKit          3D

 18 17  0  0  1  0  0  0  0  0999 V2000
    1.9480   -0.4270   -1.8510 C   0  0  0  0  0  0  0  0  0  0  0  0
    2.1270    0.0760   -0.4260 C   0  0  0  0  0  0  0  0  0  0  0  0
    2.2500    1.6090   -0.3260 C   0  0  0  0  0  0  0  0  0  0  0  0
    2.3510    2.0130    1.1490 C   0  0  0  0  0  0  0  0  0  0  0  0
    3.4400    2.1790   -1.1100 C   0  0  0  0  0  0  0  0  0  0  0  0
    4.6640    1.6400   -0.6320 O   0  0  0  0  0  0  0  0  0  0  0  0
    0.0000    0.0000    0.0000 H   0  0  0  0  0  0  0  0  0  0  0  0
    0.0000    0.0000    0.0000 H   0  0  0  0  0  0  0  0  0  0  0  0
    0.0000    0.0000    0.0000 H   0  0  0  0  0  0  0  0  0  0  0  0
    0.0000    0.0000    0.0000 H   0  0  0  0  0  0  0  0  0  0  0  0
    0.0000    0.0000    0.0000 H   0  0  0  0  0  0  0  0  0  0  0  0
    0.0000    0.0000    0.0000 H   0  0  0  0  0  0  0  0  0  0  0  0
    0.0000    0.0000    0.0000 H   0  0  0  0  0  0  0  0  0  0  0  0
    0.0000    0.0000    0.0000 H   0  0  0  0  0  0  0  0  0  0  0  0
    0.0000    0.0000    0.0000 H   0  0  0  0  0  0  0  0  0  0  0  0
    0.0000    0.0000    0.0000 H   0  0  0  0  0  0  0  0  0  0  0  0
    0.0000    0.0000    0.0000 H   0  0  0  0  0  0  0  0  0  0  0  0
    0.0000    0.0000    0.0000 H   0  0  0  0  0  0  0  0  0  0  0  0
  1  2  1  0
  2  3  1  0
  3  4  1  0
  3  5  1  0
  5  6  1  0
  1  7  1  0
  1  8  1  0
  1  9  1  0
  2 10  1  0
  2 11  1  0
  3 12  1  0
  4 13  1  0
  4 14  1  0
  4 15  1  0
  5 16  1  0
  5 17  1  0
  6 18  1  0
M  END
>  <partial_charges>  (542) 
-0.0913999974728
-0.0756999999285
-0.0603000000119
0.0439000017941
-0.0886999964714
0.133399993181
-0.598399996758
0.0317000001669
0.0317000001669
0.0317000001669
0.0469999983907
0.0469999983907
0.0375000014901
0.0375000014901
0.0375000014901
0.0193000007421
0.0193000007421
0.396800011396

>  <partial_bond_orders>  (542) 
1.0
1.0
1.0
1.0
1.0
1.0
1.0
1.0
1.0
1.0
1.0
1.0
1.0
1.0
1.0
1.0
1.0

>  <atom_types>  (542) 
c3
c3
c3
hc
c3
c3
oh
hc
hc
hc
hc
hc
hc
hc
hc
h1
h1
ho

>  <target>  (542) 
-4.42

>  <cal>  (542) 
-2.995

$$$$
mobley_1952272
     RDKit          3D

  7  6  0  0  0  0  0  0  0  0999 V2000
   -0.5250   -0.7550    0.5870 C   0  0  0  0  0  0  0  0  0  0  0  0
   -1.8330   -0.9730   -0.0160 N   0  0  0  0  0  0  0  0  0  0  0  0
   -2.1360   -0.3140   -1.0350 O   0  0  0  0  0  0  0  0  0  0  0  0
   -2.6010   -1.8000    0.5240 O   0  0  0  0  0  0  0  0  0  0  0  0
    0.0000    0.0000    0.0000 H   0  0  0  0  0  0  0  0  0  0  0  0
    0.0000    0.0000    0.0000 H   0  0  0  0  0  0  0  0  0  0  0  0
    0.0000    0.0000    0.0000 H   0  0  0  0  0  0  0  0  0  0  0  0
  1  2  1  0
  2  3  1  0
  2  4  1  0
  1  5  1  0
  1  6  1  0
  1  7  1  0
M  CHG  2   3  -1   4  -1
M  END
>  <partial_charges>  (543) 
-0.102700002491
0.234200000763
-0.20909999311
-0.20909999311
0.095600001514
0.095600001514
0.095600001514

>  <partial_bond_orders>  (543) 
1.0
1.0
1.0
1.0
1.0
1.0

>  <atom_types>  (543) 
c3
no
o
o
h1
h1
h1

>  <target>  (543) 
-4.02

>  <cal>  (543) 
-2.075

$$$$
mobley_2487143
     RDKit          3D

 19 18  0  0  0  0  0  0  0  0999 V2000
    5.2320   -3.7730    0.9380 C   0  0  0  0  0  0  0  0  0  0  0  0
    4.1010   -2.9950    0.2860 C   0  0  0  0  0  0  0  0  0  0  0  0
    3.2450   -2.2730    1.3260 C   0  0  0  0  0  0  0  0  0  0  0  0
    2.1100   -1.4930    0.6670 C   0  0  0  0  0  0  0  0  0  0  0  0
    1.2350   -0.7590    1.6730 C   0  0  0  0  0  0  0  0  0  0  0  0
    1.4610   -0.8200    2.8870 O   0  0  0  0  0  0  0  0  0  0  0  0
    0.0610    0.0540    1.0940 C   0  0  0  0  0  0  0  0  0  0  0  0
    0.0000    0.0000    0.0000 H   0  0  0  0  0  0  0  0  0  0  0  0
    0.0000    0.0000    0.0000 H   0  0  0  0  0  0  0  0  0  0  0  0
    0.0000    0.0000    0.0000 H   0  0  0  0  0  0  0  0  0  0  0  0
    0.0000    0.0000    0.0000 H   0  0  0  0  0  0  0  0  0  0  0  0
    0.0000    0.0000    0.0000 H   0  0  0  0  0  0  0  0  0  0  0  0
    0.0000    0.0000    0.0000 H   0  0  0  0  0  0  0  0  0  0  0  0
    0.0000    0.0000    0.0000 H   0  0  0  0  0  0  0  0  0  0  0  0
    0.0000    0.0000    0.0000 H   0  0  0  0  0  0  0  0  0  0  0  0
    0.0000    0.0000    0.0000 H   0  0  0  0  0  0  0  0  0  0  0  0
    0.0000    0.0000    0.0000 H   0  0  0  0  0  0  0  0  0  0  0  0
    0.0000    0.0000    0.0000 H   0  0  0  0  0  0  0  0  0  0  0  0
    0.0000    0.0000    0.0000 H   0  0  0  0  0  0  0  0  0  0  0  0
  1  2  1  0
  2  3  1  0
  3  4  1  0
  4  5  1  0
  5  6  2  0
  5  7  1  0
  1  8  1  0
  1  9  1  0
  1 10  1  0
  2 11  1  0
  2 12  1  0
  3 13  1  0
  3 14  1  0
  4 15  1  0
  4 16  1  0
  7 17  1  0
  7 18  1  0
  7 19  1  0
M  END
>  <partial_charges>  (544) 
-0.0916000008583
-0.0794000029564
-0.0751999989152
-0.179100006819
0.562200009823
-0.532400012016
-0.204199999571
0.0348000004888
0.0348000004888
0.0348000004888
0.03579999879
0.03579999879
0.0542999990284
0.0542999990284
0.0631999969482
0.0631999969482
0.0628999993205
0.0628999993205
0.0628999993205

>  <partial_bond_orders>  (544) 
1.0
1.0
1.0
1.0
2.0
1.0
1.0
1.0
1.0
1.0
1.0
1.0
1.0
1.0
1.0
1.0
1.0
1.0

>  <atom_types>  (544) 
c3
c3
c3
c3
c
o
c3
hc
hc
hc
hc
hc
hc
hc
hc
hc
hc
hc
hc

>  <target>  (544) 
-3.28

>  <cal>  (544) 
-3.006

$$$$
mobley_8882696
     RDKit          3D

 13 13  0  0  0  0  0  0  0  0999 V2000
    0.2380    0.7360    0.9960 C   0  0  0  0  0  0  0  0  0  0  0  0
   -0.9440   -0.1820    0.8150 C   0  0  0  0  0  0  0  0  0  0  0  0
   -0.9380   -0.4070   -0.6810 C   0  0  0  0  0  0  0  0  0  0  0  0
    0.4310   -0.3380   -1.1040 O   0  0  0  0  0  0  0  0  0  0  0  0
    1.2140    0.1910   -0.0250 C   0  0  0  0  0  0  0  0  0  0  0  0
    0.0000    0.0000    0.0000 H   0  0  0  0  0  0  0  0  0  0  0  0
    0.0000    0.0000    0.0000 H   0  0  0  0  0  0  0  0  0  0  0  0
    0.0000    0.0000    0.0000 H   0  0  0  0  0  0  0  0  0  0  0  0
    0.0000    0.0000    0.0000 H   0  0  0  0  0  0  0  0  0  0  0  0
    0.0000    0.0000    0.0000 H   0  0  0  0  0  0  0  0  0  0  0  0
    0.0000    0.0000    0.0000 H   0  0  0  0  0  0  0  0  0  0  0  0
    0.0000    0.0000    0.0000 H   0  0  0  0  0  0  0  0  0  0  0  0
    0.0000    0.0000    0.0000 H   0  0  0  0  0  0  0  0  0  0  0  0
  1  5  1  0
  1  2  1  0
  2  3  1  0
  3  4  1  0
  4  5  1  0
  1  6  1  0
  1  7  1  0
  2  8  1  0
  2  9  1  0
  3 10  1  0
  3 11  1  0
  5 12  1  0
  5 13  1  0
M  END
>  <partial_charges>  (545) 
-0.109800003469
-0.109800003469
0.125100001693
-0.428999990225
0.125100001693
0.0538000017405
0.0538000017405
0.0538000017405
0.0538000017405
0.0458000004292
0.0458000004292
0.0458000004292
0.0458000004292

>  <partial_bond_orders>  (545) 
1.0
1.0
1.0
1.0
1.0
1.0
1.0
1.0
1.0
1.0
1.0
1.0
1.0

>  <atom_types>  (545) 
c3
c3
c3
os
c3
hc
hc
hc
hc
h1
h1
h1
h1

>  <target>  (545) 
-3.47

>  <cal>  (545) 
-2.201

$$$$
mobley_7599023
     RDKit          3D

 12 12  0  0  0  0  0  0  0  0999 V2000
    1.8850   -1.0360   -0.1120 C   0  0  0  0  0  0  0  0  0  0  0  0
    2.9210   -1.6310    0.6080 C   0  0  0  0  0  0  0  0  0  0  0  0
    2.8780   -1.6520    2.0020 C   0  0  0  0  0  0  0  0  0  0  0  0
    1.8000   -1.0790    2.6760 C   0  0  0  0  0  0  0  0  0  0  0  0
    0.7640   -0.4840    1.9550 C   0  0  0  0  0  0  0  0  0  0  0  0
    0.8070   -0.4630    0.5610 C   0  0  0  0  0  0  0  0  0  0  0  0
    1.7420   -1.1080    4.5640 Br  0  0  0  0  0  0  0  0  0  0  0  0
    0.0000    0.0000    0.0000 H   0  0  0  0  0  0  0  0  0  0  0  0
    0.0000    0.0000    0.0000 H   0  0  0  0  0  0  0  0  0  0  0  0
    0.0000    0.0000    0.0000 H   0  0  0  0  0  0  0  0  0  0  0  0
    0.0000    0.0000    0.0000 H   0  0  0  0  0  0  0  0  0  0  0  0
    0.0000    0.0000    0.0000 H   0  0  0  0  0  0  0  0  0  0  0  0
  1  6  2  0
  1  2  1  0
  2  3  2  0
  3  4  1  0
  4  5  2  0
  5  6  1  0
  4  7  1  0
  1  8  1  0
  2  9  1  0
  3 10  1  0
  5 11  1  0
  6 12  1  0
M  END
>  <partial_charges>  (546) 
-0.117399998009
-0.13030000031
-0.103500001132
-0.0260000005364
-0.103500001132
-0.13030000031
-0.091099999845
0.135299995542
0.137400001287
0.145999997854
0.145999997854
0.137400001287

>  <partial_bond_orders>  (546) 
2.0
1.0
2.0
1.0
2.0
1.0
1.0
1.0
1.0
1.0
1.0
1.0

>  <atom_types>  (546) 
ca
ca
ca
ca
ca
ca
br
ha
ha
ha
ha
ha

>  <target>  (546) 
-1.46

>  <cal>  (546) 
-0.947

$$$$
mobley_8691603
     RDKit          3D

 16 16  0  0  0  0  0  0  0  0999 V2000
    1.9310   -1.0140   -1.6030 C   0  0  0  0  0  0  0  0  0  0  0  0
    1.8850   -1.0360   -0.1120 C   0  0  0  0  0  0  0  0  0  0  0  0
    2.9210   -1.6310    0.6080 C   0  0  0  0  0  0  0  0  0  0  0  0
    2.8780   -1.6520    2.0020 C   0  0  0  0  0  0  0  0  0  0  0  0
    1.8000   -1.0790    2.6760 C   0  0  0  0  0  0  0  0  0  0  0  0
    0.7640   -0.4840    1.9550 C   0  0  0  0  0  0  0  0  0  0  0  0
    0.8070   -0.4630    0.5610 C   0  0  0  0  0  0  0  0  0  0  0  0
   -0.2880    0.0760    2.6120 O   0  0  0  0  0  0  0  0  0  0  0  0
    0.0000    0.0000    0.0000 H   0  0  0  0  0  0  0  0  0  0  0  0
    0.0000    0.0000    0.0000 H   0  0  0  0  0  0  0  0  0  0  0  0
    0.0000    0.0000    0.0000 H   0  0  0  0  0  0  0  0  0  0  0  0
    0.0000    0.0000    0.0000 H   0  0  0  0  0  0  0  0  0  0  0  0
    0.0000    0.0000    0.0000 H   0  0  0  0  0  0  0  0  0  0  0  0
    0.0000    0.0000    0.0000 H   0  0  0  0  0  0  0  0  0  0  0  0
    0.0000    0.0000    0.0000 H   0  0  0  0  0  0  0  0  0  0  0  0
    0.0000    0.0000    0.0000 H   0  0  0  0  0  0  0  0  0  0  0  0
  1  2  1  0
  2  7  2  0
  2  3  1  0
  3  4  2  0
  4  5  1  0
  5  6  2  0
  6  7  1  0
  6  8  1  0
  1  9  1  0
  1 10  1  0
  1 11  1  0
  3 12  1  0
  4 13  1  0
  5 14  1  0
  7 15  1  0
  8 16  1  0
M  END
>  <partial_charges>  (547) 
-0.0566999986768
-0.0430000014603
-0.166199997067
-0.0881000012159
-0.21969999373
0.127399995923
-0.158600002527
-0.499599993229
0.0465000011027
0.0465000011027
0.0465000011027
0.133200004697
0.131699994206
0.132300004363
0.149399995804
0.418399989605

>  <partial_bond_orders>  (547) 
1.0
2.0
1.0
2.0
1.0
2.0
1.0
1.0
1.0
1.0
1.0
1.0
1.0
1.0
1.0
1.0

>  <atom_types>  (547) 
c3
ca
ca
ca
ca
ca
ca
oh
hc
hc
hc
ha
ha
ha
ha
ho

>  <target>  (547) 
-5.49

>  <cal>  (547) 
-5.378

$$$$
mobley_5571660
     RDKit          3D

 20 20  0  0  0  0  0  0  0  0999 V2000
    1.9600   -1.0270   -1.6050 C   0  0  0  0  0  0  0  0  0  0  0  0
    1.8850   -1.0360   -0.1120 C   0  0  0  0  0  0  0  0  0  0  0  0
    2.9210   -1.6310    0.6080 C   0  0  0  0  0  0  0  0  0  0  0  0
    2.8780   -1.6520    2.0020 C   0  0  0  0  0  0  0  0  0  0  0  0
    1.8000   -1.0790    2.6760 C   0  0  0  0  0  0  0  0  0  0  0  0
    0.7640   -0.4840    1.9550 C   0  0  0  0  0  0  0  0  0  0  0  0
    0.8070   -0.4630    0.5610 C   0  0  0  0  0  0  0  0  0  0  0  0
   -0.2420    0.1420   -0.1700 N   0  0  0  0  0  0  0  0  0  0  0  0
   -0.3780    0.1230    2.7040 C   0  0  0  0  0  0  0  0  0  0  0  0
    0.0000    0.0000    0.0000 H   0  0  0  0  0  0  0  0  0  0  0  0
    0.0000    0.0000    0.0000 H   0  0  0  0  0  0  0  0  0  0  0  0
    0.0000    0.0000    0.0000 H   0  0  0  0  0  0  0  0  0  0  0  0
    0.0000    0.0000    0.0000 H   0  0  0  0  0  0  0  0  0  0  0  0
    0.0000    0.0000    0.0000 H   0  0  0  0  0  0  0  0  0  0  0  0
    0.0000    0.0000    0.0000 H   0  0  0  0  0  0  0  0  0  0  0  0
    0.0000    0.0000    0.0000 H   0  0  0  0  0  0  0  0  0  0  0  0
    0.0000    0.0000    0.0000 H   0  0  0  0  0  0  0  0  0  0  0  0
    0.0000    0.0000    0.0000 H   0  0  0  0  0  0  0  0  0  0  0  0
    0.0000    0.0000    0.0000 H   0  0  0  0  0  0  0  0  0  0  0  0
    0.0000    0.0000    0.0000 H   0  0  0  0  0  0  0  0  0  0  0  0
  1  2  1  0
  2  7  2  0
  2  3  1  0
  3  4  2  0
  4  5  1  0
  5  6  2  0
  6  7  1  0
  7  8  1  0
  6  9  1  0
  1 10  1  0
  1 11  1  0
  1 12  1  0
  3 13  1  0
  4 14  1  0
  5 15  1  0
  8 16  1  0
  8 17  1  0
  9 18  1  0
  9 19  1  0
  9 20  1  0
M  END
>  <partial_charges>  (548) 
-0.0454000011086
-0.140000000596
-0.0943000018597
-0.170300006866
-0.0943000018597
-0.140000000596
0.148300006986
-0.822700023651
-0.0454000011086
0.0392000004649
0.0392000004649
0.0392000004649
0.127700001001
0.13030000031
0.127700001001
0.391600012779
0.391600012779
0.0392000004649
0.0392000004649
0.0392000004649

>  <partial_bond_orders>  (548) 
1.0
2.0
1.0
2.0
1.0
2.0
1.0
1.0
1.0
1.0
1.0
1.0
1.0
1.0
1.0
1.0
1.0
1.0
1.0
1.0

>  <atom_types>  (548) 
c3
ca
ca
ca
ca
ca
ca
nh
c3
hc
hc
hc
ha
ha
ha
hn
hn
hc
hc
hc

>  <target>  (548) 
-5.21

>  <cal>  (548) 
-5.57

$$$$
mobley_5616693
     RDKit          3D

 29 29  0  0  1  0  0  0  0  0999 V2000
   -1.5680    2.2510   -0.1610 C   0  0  0  0  0  0  0  0  0  0  0  0
   -1.3300    1.2030   -1.2460 C   0  0  0  0  0  0  0  0  0  0  0  0
   -2.5090    0.2240   -1.3230 C   0  0  0  0  0  0  0  0  0  0  0  0
   -2.2820   -0.8280   -2.4090 C   0  0  0  0  0  0  0  0  0  0  0  0
   -0.9890   -1.6140   -2.1780 C   0  0  0  0  0  0  0  0  0  0  0  0
    0.1740   -0.6410   -2.0180 C   0  0  0  0  0  0  0  0  0  0  0  0
    1.2450   -0.7780   -2.6080 O   0  0  0  0  0  0  0  0  0  0  0  0
   -0.0180    0.4590   -0.9950 C   0  0  0  0  0  0  0  0  0  0  0  0
   -0.7470   -2.6020   -3.3150 C   0  0  0  0  0  0  0  0  0  0  0  0
    0.2200   -3.7010   -2.8770 C   0  0  0  0  0  0  0  0  0  0  0  0
   -2.0660   -3.2080   -3.7910 C   0  0  0  0  0  0  0  0  0  0  0  0
    0.0000    0.0000    0.0000 H   0  0  0  0  0  0  0  0  0  0  0  0
    0.0000    0.0000    0.0000 H   0  0  0  0  0  0  0  0  0  0  0  0
    0.0000    0.0000    0.0000 H   0  0  0  0  0  0  0  0  0  0  0  0
    0.0000    0.0000    0.0000 H   0  0  0  0  0  0  0  0  0  0  0  0
    0.0000    0.0000    0.0000 H   0  0  0  0  0  0  0  0  0  0  0  0
    0.0000    0.0000    0.0000 H   0  0  0  0  0  0  0  0  0  0  0  0
    0.0000    0.0000    0.0000 H   0  0  0  0  0  0  0  0  0  0  0  0
    0.0000    0.0000    0.0000 H   0  0  0  0  0  0  0  0  0  0  0  0
    0.0000    0.0000    0.0000 H   0  0  0  0  0  0  0  0  0  0  0  0
    0.0000    0.0000    0.0000 H   0  0  0  0  0  0  0  0  0  0  0  0
    0.0000    0.0000    0.0000 H   0  0  0  0  0  0  0  0  0  0  0  0
    0.0000    0.0000    0.0000 H   0  0  0  0  0  0  0  0  0  0  0  0
    0.0000    0.0000    0.0000 H   0  0  0  0  0  0  0  0  0  0  0  0
    0.0000    0.0000    0.0000 H   0  0  0  0  0  0  0  0  0  0  0  0
    0.0000    0.0000    0.0000 H   0  0  0  0  0  0  0  0  0  0  0  0
    0.0000    0.0000    0.0000 H   0  0  0  0  0  0  0  0  0  0  0  0
    0.0000    0.0000    0.0000 H   0  0  0  0  0  0  0  0  0  0  0  0
    0.0000    0.0000    0.0000 H   0  0  0  0  0  0  0  0  0  0  0  0
  1  2  1  0
  2  8  1  0
  2  3  1  0
  3  4  1  0
  4  5  1  0
  5  6  1  0
  6  7  2  0
  6  8  1  0
  5  9  1  0
  9 10  1  0
  9 11  1  0
  1 12  1  0
  1 13  1  0
  1 14  1  0
  2 15  1  0
  3 16  1  0
  3 17  1  0
  4 18  1  0
  4 19  1  0
  5 20  1  0
  8 21  1  0
  8 22  1  0
  9 23  1  0
 10 24  1  0
 10 25  1  0
 10 26  1  0
 11 27  1  0
 11 28  1  0
 11 29  1  0
M  END
>  <partial_charges>  (549) 
-0.0904000028968
-0.0597000010312
0.0538000017405
-0.082000002265
-0.0724999979138
-0.155900001526
0.0702000036836
0.571600019932
-0.532700002193
-0.179000005126
-0.0582000017166
-0.0934000015259
-0.0934000015259
0.0373999997973
0.0373999997973
0.0373999997973
0.0450000017881
0.0450000017881
0.0502999983728
0.0502999983728
0.0678000003099
0.0678000003099
0.0639000013471
0.0364999994636
0.0364999994636
0.0364999994636
0.0364999994636
0.0364999994636
0.0364999994636

>  <partial_bond_orders>  (549) 
1.0
1.0
1.0
1.0
1.0
1.0
1.0
1.0
2.0
1.0
1.0
1.0
1.0
1.0
1.0
1.0
1.0
1.0
1.0
1.0
1.0
1.0
1.0
1.0
1.0
1.0
1.0
1.0
1.0

>  <atom_types>  (549) 
c3
c3
hc
c3
c3
c3
hc
c
o
c3
c3
c3
c3
hc
hc
hc
hc
hc
hc
hc
hc
hc
hc
hc
hc
hc
hc
hc
hc

>  <target>  (549) 
-2.53

>  <cal>  (549) 
-3.523

$$$$
mobley_1781152
     RDKit          3D

 20 19  0  0  0  0  0  0  0  0999 V2000
    0.7040   -0.4120    0.7310 C   0  0  0  0  0  0  0  0  0  0  0  0
    1.9240   -1.0340    0.0390 C   0  0  0  0  0  0  0  0  0  0  0  0
    2.5940    0.0300   -0.8450 C   0  0  0  0  0  0  0  0  0  0  0  0
    1.4940   -2.2150   -0.8430 C   0  0  0  0  0  0  0  0  0  0  0  0
    2.9200   -1.5220    1.0970 C   0  0  0  0  0  0  0  0  0  0  0  0
    4.0730   -1.1200    1.2000 O   0  0  0  0  0  0  0  0  0  0  0  0
    2.3400   -2.4610    1.9030 O   0  0  0  0  0  0  0  0  0  0  0  0
    3.1760   -2.9930    2.9350 C   0  0  0  0  0  0  0  0  0  0  0  0
    0.0000    0.0000    0.0000 H   0  0  0  0  0  0  0  0  0  0  0  0
    0.0000    0.0000    0.0000 H   0  0  0  0  0  0  0  0  0  0  0  0
    0.0000    0.0000    0.0000 H   0  0  0  0  0  0  0  0  0  0  0  0
    0.0000    0.0000    0.0000 H   0  0  0  0  0  0  0  0  0  0  0  0
    0.0000    0.0000    0.0000 H   0  0  0  0  0  0  0  0  0  0  0  0
    0.0000    0.0000    0.0000 H   0  0  0  0  0  0  0  0  0  0  0  0
    0.0000    0.0000    0.0000 H   0  0  0  0  0  0  0  0  0  0  0  0
    0.0000    0.0000    0.0000 H   0  0  0  0  0  0  0  0  0  0  0  0
    0.0000    0.0000    0.0000 H   0  0  0  0  0  0  0  0  0  0  0  0
    0.0000    0.0000    0.0000 H   0  0  0  0  0  0  0  0  0  0  0  0
    0.0000    0.0000    0.0000 H   0  0  0  0  0  0  0  0  0  0  0  0
    0.0000    0.0000    0.0000 H   0  0  0  0  0  0  0  0  0  0  0  0
  1  2  1  0
  2  3  1  0
  2  4  1  0
  2  5  1  0
  5  6  2  0
  5  7  1  0
  7  8  1  0
  1  9  1  0
  1 10  1  0
  1 11  1  0
  3 12  1  0
  3 13  1  0
  3 14  1  0
  4 15  1  0
  4 16  1  0
  4 17  1  0
  8 18  1  0
  8 19  1  0
  8 20  1  0
M  END
>  <partial_charges>  (550) 
-0.0885000005364
-0.0916000008583
-0.0885000005364
-0.0885000005364
0.633599996567
-0.538999974728
-0.438300013542
0.124399997294
0.0474000014365
0.0474000014365
0.0474000014365
0.0474000014365
0.0474000014365
0.0474000014365
0.0474000014365
0.0474000014365
0.0474000014365
0.0500000007451
0.0500000007451
0.0500000007451

>  <partial_bond_orders>  (550) 
1.0
1.0
1.0
1.0
2.0
1.0
1.0
1.0
1.0
1.0
1.0
1.0
1.0
1.0
1.0
1.0
1.0
1.0
1.0

>  <atom_types>  (550) 
c3
c3
c3
c3
c
o
os
c3
hc
hc
hc
hc
hc
hc
hc
hc
hc
h1
h1
h1

>  <target>  (550) 
-2.4

>  <cal>  (550) 
-3.304

$$$$
mobley_4506634
     RDKit          3D

  8  7  0  0  1  0  0  0  0  0999 V2000
   -0.3270   -0.6300    0.1780 C   0  0  0  0  0  0  0  0  0  0  0  0
    0.4870    0.5730   -0.2340 C   0  0  0  0  0  0  0  0  0  0  0  0
    1.1370    0.3470   -1.3990 F   0  0  0  0  0  0  0  0  0  0  0  0
   -0.3100    1.6480   -0.4290 F   0  0  0  0  0  0  0  0  0  0  0  0
    1.4090    0.9100    0.6930 F   0  0  0  0  0  0  0  0  0  0  0  0
   -1.5630   -1.0140   -1.0340 Cl  0  0  0  0  0  0  0  0  0  0  0  0
   -1.1950   -0.2960    1.8880 Br  0  0  0  0  0  0  0  0  0  0  0  0
    0.0000    0.0000    0.0000 H   0  0  0  0  0  0  0  0  0  0  0  0
  1  2  1  0
  2  3  1  0
  2  4  1  0
  2  5  1  0
  1  6  1  0
  1  7  1  0
  1  8  1  0
M  END
>  <partial_charges>  (551) 
0.0217000003904
0.130999997258
0.638899981976
-0.218099996448
-0.218099996448
-0.218099996448
-0.0788000002503
-0.0586000010371

>  <partial_bond_orders>  (551) 
1.0
1.0
1.0
1.0
1.0
1.0
1.0

>  <atom_types>  (551) 
c3
h2
c3
f
f
f
cl
br

>  <target>  (551) 
-0.11

>  <cal>  (551) 
0.206

$$$$
mobley_4035953
     RDKit          3D

 16 16  0  0  0  0  0  0  0  0999 V2000
    1.9470   -1.0230   -1.6040 C   0  0  0  0  0  0  0  0  0  0  0  0
    1.8850   -1.0360   -0.1120 C   0  0  0  0  0  0  0  0  0  0  0  0
    2.9210   -1.6310    0.6080 C   0  0  0  0  0  0  0  0  0  0  0  0
    2.8780   -1.6520    2.0020 C   0  0  0  0  0  0  0  0  0  0  0  0
    1.8000   -1.0790    2.6760 C   0  0  0  0  0  0  0  0  0  0  0  0
    0.7640   -0.4840    1.9550 C   0  0  0  0  0  0  0  0  0  0  0  0
    0.8070   -0.4630    0.5610 C   0  0  0  0  0  0  0  0  0  0  0  0
   -0.2140    0.1210   -0.1280 O   0  0  0  0  0  0  0  0  0  0  0  0
    0.0000    0.0000    0.0000 H   0  0  0  0  0  0  0  0  0  0  0  0
    0.0000    0.0000    0.0000 H   0  0  0  0  0  0  0  0  0  0  0  0
    0.0000    0.0000    0.0000 H   0  0  0  0  0  0  0  0  0  0  0  0
    0.0000    0.0000    0.0000 H   0  0  0  0  0  0  0  0  0  0  0  0
    0.0000    0.0000    0.0000 H   0  0  0  0  0  0  0  0  0  0  0  0
    0.0000    0.0000    0.0000 H   0  0  0  0  0  0  0  0  0  0  0  0
    0.0000    0.0000    0.0000 H   0  0  0  0  0  0  0  0  0  0  0  0
    0.0000    0.0000    0.0000 H   0  0  0  0  0  0  0  0  0  0  0  0
  1  2  1  0
  2  7  2  0
  2  3  1  0
  3  4  2  0
  4  5  1  0
  5  6  2  0
  6  7  1  0
  7  8  1  0
  1  9  1  0
  1 10  1  0
  1 11  1  0
  3 12  1  0
  4 13  1  0
  5 14  1  0
  6 15  1  0
  8 16  1  0
M  END
>  <partial_charges>  (552) 
-0.0450999997556
-0.0996000021696
-0.1018999964
-0.16060000658
-0.0967999994755
-0.209399998188
0.122000001371
-0.498899996281
0.0472999997437
0.0472999997437
0.0472999997437
0.133900001645
0.132799997926
0.131600007415
0.131799995899
0.418099999428

>  <partial_bond_orders>  (552) 
1.0
2.0
1.0
2.0
1.0
2.0
1.0
1.0
1.0
1.0
1.0
1.0
1.0
1.0
1.0
1.0

>  <atom_types>  (552) 
c3
ca
ca
ca
ca
ca
ca
oh
hc
hc
hc
ha
ha
ha
ha
ho

>  <target>  (552) 
-5.9

>  <cal>  (552) 
-5.076

$$$$
mobley_7417968
     RDKit          3D

 21 20  0  0  0  0  0  0  0  0999 V2000
    1.2250   -0.5760   -5.4130 C   0  0  0  0  0  0  0  0  0  0  0  0
    0.2820    0.5840   -5.1800 C   0  0  0  0  0  0  0  0  0  0  0  0
   -0.6780    0.2120   -4.2000 O   0  0  0  0  0  0  0  0  0  0  0  0
   -1.5950    1.2670   -3.9400 C   0  0  0  0  0  0  0  0  0  0  0  0
   -2.5900    0.8100   -2.8900 C   0  0  0  0  0  0  0  0  0  0  0  0
   -1.8830    0.4730   -1.6920 O   0  0  0  0  0  0  0  0  0  0  0  0
   -2.6580    0.0420   -0.6560 C   0  0  0  0  0  0  0  0  0  0  0  0
   -3.8750   -0.0770   -0.6610 O   0  0  0  0  0  0  0  0  0  0  0  0
   -1.7880   -0.2730    0.5230 C   0  0  0  0  0  0  0  0  0  0  0  0
    0.0000    0.0000    0.0000 H   0  0  0  0  0  0  0  0  0  0  0  0
    0.0000    0.0000    0.0000 H   0  0  0  0  0  0  0  0  0  0  0  0
    0.0000    0.0000    0.0000 H   0  0  0  0  0  0  0  0  0  0  0  0
    0.0000    0.0000    0.0000 H   0  0  0  0  0  0  0  0  0  0  0  0
    0.0000    0.0000    0.0000 H   0  0  0  0  0  0  0  0  0  0  0  0
    0.0000    0.0000    0.0000 H   0  0  0  0  0  0  0  0  0  0  0  0
    0.0000    0.0000    0.0000 H   0  0  0  0  0  0  0  0  0  0  0  0
    0.0000    0.0000    0.0000 H   0  0  0  0  0  0  0  0  0  0  0  0
    0.0000    0.0000    0.0000 H   0  0  0  0  0  0  0  0  0  0  0  0
    0.0000    0.0000    0.0000 H   0  0  0  0  0  0  0  0  0  0  0  0
    0.0000    0.0000    0.0000 H   0  0  0  0  0  0  0  0  0  0  0  0
    0.0000    0.0000    0.0000 H   0  0  0  0  0  0  0  0  0  0  0  0
  1  2  1  0
  2  3  1  0
  3  4  1  0
  4  5  1  0
  5  6  1  0
  6  7  1  0
  7  8  2  0
  7  9  1  0
  1 10  1  0
  1 11  1  0
  1 12  1  0
  2 13  1  0
  2 14  1  0
  4 15  1  0
  4 16  1  0
  5 17  1  0
  5 18  1  0
  9 19  1  0
  9 20  1  0
  9 21  1  0
M  END
>  <partial_charges>  (553) 
-0.0967999994755
0.127800002694
-0.41060000658
0.126300007105
0.138099998236
-0.430799990892
0.632899999619
-0.546599984169
-0.149700000882
0.0458000004292
0.0458000004292
0.0458000004292
0.0232999995351
0.0232999995351
0.0375000014901
0.0375000014901
0.0608000010252
0.0608000010252
0.0763000026345
0.0763000026345
0.0763000026345

>  <partial_bond_orders>  (553) 
1.0
1.0
1.0
1.0
1.0
1.0
2.0
1.0
1.0
1.0
1.0
1.0
1.0
1.0
1.0
1.0
1.0
1.0
1.0
1.0

>  <atom_types>  (553) 
c3
c3
os
c3
c3
os
c
o
c3
hc
hc
hc
h1
h1
h1
h1
h1
h1
hc
hc
hc

>  <target>  (553) 
-5.31

>  <cal>  (553) 
-5.751

$$$$
mobley_1563176
     RDKit          3D

 15 14  0  0  0  0  0  0  0  0999 V2000
    0.9410   -0.0580   -0.7030 C   0  0  0  0  0  0  0  0  0  0  0  0
    0.8880   -1.4200   -1.3800 C   0  0  0  0  0  0  0  0  0  0  0  0
   -0.3380   -1.5430   -2.2870 C   0  0  0  0  0  0  0  0  0  0  0  0
   -0.4450   -2.8930   -2.9950 C   0  0  0  0  0  0  0  0  0  0  0  0
   -1.9070   -3.0190   -4.0670 S   0  0  0  0  0  0  0  0  0  0  0  0
    0.0000    0.0000    0.0000 H   0  0  0  0  0  0  0  0  0  0  0  0
    0.0000    0.0000    0.0000 H   0  0  0  0  0  0  0  0  0  0  0  0
    0.0000    0.0000    0.0000 H   0  0  0  0  0  0  0  0  0  0  0  0
    0.0000    0.0000    0.0000 H   0  0  0  0  0  0  0  0  0  0  0  0
    0.0000    0.0000    0.0000 H   0  0  0  0  0  0  0  0  0  0  0  0
    0.0000    0.0000    0.0000 H   0  0  0  0  0  0  0  0  0  0  0  0
    0.0000    0.0000    0.0000 H   0  0  0  0  0  0  0  0  0  0  0  0
    0.0000    0.0000    0.0000 H   0  0  0  0  0  0  0  0  0  0  0  0
    0.0000    0.0000    0.0000 H   0  0  0  0  0  0  0  0  0  0  0  0
    0.0000    0.0000    0.0000 H   0  0  0  0  0  0  0  0  0  0  0  0
  1  2  1  0
  2  3  1  0
  3  4  1  0
  4  5  1  0
  1  6  1  0
  1  7  1  0
  1  8  1  0
  2  9  1  0
  2 10  1  0
  3 11  1  0
  3 12  1  0
  4 13  1  0
  4 14  1  0
  5 15  1  0
M  END
>  <partial_charges>  (554) 
-0.0936999991536
-0.0797000005841
-0.0839999988675
0.00520000001416
-0.378699988127
0.035000000149
0.035000000149
0.035000000149
0.0412000007927
0.0412000007927
0.0491999983788
0.0491999983788
0.0728000029922
0.0728000029922
0.199499994516

>  <partial_bond_orders>  (554) 
1.0
1.0
1.0
1.0
1.0
1.0
1.0
1.0
1.0
1.0
1.0
1.0
1.0
1.0

>  <atom_types>  (554) 
c3
c3
c3
c3
sh
hc
hc
hc
hc
hc
hc
hc
h1
h1
hs

>  <target>  (554) 
-0.99

>  <cal>  (554) 
-0.174

$$$$
mobley_2925352
     RDKit          3D

 16 16  0  0  0  0  0  0  0  0999 V2000
    1.9290   -1.0150   -1.6030 C   0  0  0  0  0  0  0  0  0  0  0  0
    1.8850   -1.0360   -0.1120 C   0  0  0  0  0  0  0  0  0  0  0  0
    2.9210   -1.6310    0.6080 C   0  0  0  0  0  0  0  0  0  0  0  0
    2.8780   -1.6520    2.0020 C   0  0  0  0  0  0  0  0  0  0  0  0
    1.8000   -1.0790    2.6760 C   0  0  0  0  0  0  0  0  0  0  0  0
    0.7640   -0.4840    1.9550 C   0  0  0  0  0  0  0  0  0  0  0  0
    0.8070   -0.4630    0.5610 C   0  0  0  0  0  0  0  0  0  0  0  0
    1.7580   -1.1000    4.0360 O   0  0  0  0  0  0  0  0  0  0  0  0
    0.0000    0.0000    0.0000 H   0  0  0  0  0  0  0  0  0  0  0  0
    0.0000    0.0000    0.0000 H   0  0  0  0  0  0  0  0  0  0  0  0
    0.0000    0.0000    0.0000 H   0  0  0  0  0  0  0  0  0  0  0  0
    0.0000    0.0000    0.0000 H   0  0  0  0  0  0  0  0  0  0  0  0
    0.0000    0.0000    0.0000 H   0  0  0  0  0  0  0  0  0  0  0  0
    0.0000    0.0000    0.0000 H   0  0  0  0  0  0  0  0  0  0  0  0
    0.0000    0.0000    0.0000 H   0  0  0  0  0  0  0  0  0  0  0  0
    0.0000    0.0000    0.0000 H   0  0  0  0  0  0  0  0  0  0  0  0
  1  2  1  0
  2  7  2  0
  2  3  1  0
  3  4  2  0
  4  5  1  0
  5  6  2  0
  6  7  1  0
  5  8  1  0
  1  9  1  0
  1 10  1  0
  1 11  1  0
  3 12  1  0
  4 13  1  0
  6 14  1  0
  7 15  1  0
  8 16  1  0
M  END
>  <partial_charges>  (555) 
-0.0482000000775
-0.11249999702
-0.0948999971151
-0.181400001049
0.11819999665
-0.181400001049
-0.0948999971151
-0.498400002718
0.042500000447
0.042500000447
0.042500000447
0.133200004697
0.14090000093
0.14090000093
0.133200004697
0.417899996042

>  <partial_bond_orders>  (555) 
1.0
2.0
1.0
2.0
1.0
2.0
1.0
1.0
1.0
1.0
1.0
1.0
1.0
1.0
1.0
1.0

>  <atom_types>  (555) 
c3
ca
ca
ca
ca
ca
ca
oh
hc
hc
hc
ha
ha
ha
ha
ho

>  <target>  (555) 
-6.13

>  <cal>  (555) 
-5.579

$$$$
mobley_9979854
     RDKit          3D

 12 11  0  0  1  0  0  0  0  0999 V2000
    0.3310    1.3650   -0.0660 C   0  0  0  0  0  0  0  0  0  0  0  0
   -0.0250   -0.0560   -0.4690 C   0  0  0  0  0  0  0  0  0  0  0  0
   -0.5920   -0.8500    0.6890 C   0  0  0  0  0  0  0  0  0  0  0  0
   -1.7160   -0.2690    1.1640 F   0  0  0  0  0  0  0  0  0  0  0  0
   -0.9020   -2.1120    0.3240 F   0  0  0  0  0  0  0  0  0  0  0  0
    0.2910   -0.9180    1.7090 F   0  0  0  0  0  0  0  0  0  0  0  0
    1.1560   -0.6950   -0.9410 O   0  0  0  0  0  0  0  0  0  0  0  0
    0.0000    0.0000    0.0000 H   0  0  0  0  0  0  0  0  0  0  0  0
    0.0000    0.0000    0.0000 H   0  0  0  0  0  0  0  0  0  0  0  0
    0.0000    0.0000    0.0000 H   0  0  0  0  0  0  0  0  0  0  0  0
    0.0000    0.0000    0.0000 H   0  0  0  0  0  0  0  0  0  0  0  0
    0.0000    0.0000    0.0000 H   0  0  0  0  0  0  0  0  0  0  0  0
  1  2  1  0
  2  3  1  0
  3  4  1  0
  3  5  1  0
  3  6  1  0
  2  7  1  0
  1  8  1  0
  1  9  1  0
  1 10  1  0
  2 11  1  0
  7 12  1  0
M  END
>  <partial_charges>  (556) 
-0.100500002503
0.124099999666
0.0688999965787
0.582400023937
-0.23749999702
-0.23749999702
-0.23749999702
-0.574100017548
0.0649000033736
0.0649000033736
0.0649000033736
0.416999995708

>  <partial_bond_orders>  (556) 
1.0
1.0
1.0
1.0
1.0
1.0
1.0
1.0
1.0
1.0
1.0

>  <atom_types>  (556) 
c3
c3
h1
c3
f
f
f
oh
hc
hc
hc
ho

>  <target>  (556) 
-4.2

>  <cal>  (556) 
-3.486

$$$$
mobley_3201701
     RDKit          3D

 35 35  0  0  0  0  0  0  0  0999 V2000
    4.4470   -1.3100    1.1860 C   0  0  0  0  0  0  0  0  0  0  0  0
    4.1120   -2.6610    1.7100 C   0  0  0  0  0  0  0  0  0  0  0  0
    4.9010   -3.7670    1.4640 C   0  0  0  0  0  0  0  0  0  0  0  0
    4.6230   -5.0040    1.9250 N   0  0  0  0  0  0  0  0  0  0  0  0
    3.4990   -5.0970    2.6600 C   0  0  0  0  0  0  0  0  0  0  0  0
    2.6490   -4.0990    2.9690 N   0  0  0  0  0  0  0  0  0  0  0  0
    2.9870   -2.8900    2.4760 C   0  0  0  0  0  0  0  0  0  0  0  0
    2.1240   -1.8310    2.7800 O   0  0  0  0  0  0  0  0  0  0  0  0
    1.9790   -1.5860    4.1480 C   0  0  0  0  0  0  0  0  0  0  0  0
    2.5550   -2.2390    5.0170 O   0  0  0  0  0  0  0  0  0  0  0  0
    1.1090   -0.5210    4.4100 N   0  0  0  0  0  0  0  0  0  0  0  0
    0.8350   -0.1210    5.7830 C   0  0  0  0  0  0  0  0  0  0  0  0
    0.4330    0.2490    3.3710 C   0  0  0  0  0  0  0  0  0  0  0  0
    3.1760   -6.3780    3.1590 N   0  0  0  0  0  0  0  0  0  0  0  0
    4.0330   -7.5110    2.8770 C   0  0  0  0  0  0  0  0  0  0  0  0
    1.9930   -6.5700    3.9720 C   0  0  0  0  0  0  0  0  0  0  0  0
    6.1440   -3.6410    0.6460 C   0  0  0  0  0  0  0  0  0  0  0  0
    0.0000    0.0000    0.0000 H   0  0  0  0  0  0  0  0  0  0  0  0
    0.0000    0.0000    0.0000 H   0  0  0  0  0  0  0  0  0  0  0  0
    0.0000    0.0000    0.0000 H   0  0  0  0  0  0  0  0  0  0  0  0
    0.0000    0.0000    0.0000 H   0  0  0  0  0  0  0  0  0  0  0  0
    0.0000    0.0000    0.0000 H   0  0  0  0  0  0  0  0  0  0  0  0
    0.0000    0.0000    0.0000 H   0  0  0  0  0  0  0  0  0  0  0  0
    0.0000    0.0000    0.0000 H   0  0  0  0  0  0  0  0  0  0  0  0
    0.0000    0.0000    0.0000 H   0  0  0  0  0  0  0  0  0  0  0  0
    0.0000    0.0000    0.0000 H   0  0  0  0  0  0  0  0  0  0  0  0
    0.0000    0.0000    0.0000 H   0  0  0  0  0  0  0  0  0  0  0  0
    0.0000    0.0000    0.0000 H   0  0  0  0  0  0  0  0  0  0  0  0
    0.0000    0.0000    0.0000 H   0  0  0  0  0  0  0  0  0  0  0  0
    0.0000    0.0000    0.0000 H   0  0  0  0  0  0  0  0  0  0  0  0
    0.0000    0.0000    0.0000 H   0  0  0  0  0  0  0  0  0  0  0  0
    0.0000    0.0000    0.0000 H   0  0  0  0  0  0  0  0  0  0  0  0
    0.0000    0.0000    0.0000 H   0  0  0  0  0  0  0  0  0  0  0  0
    0.0000    0.0000    0.0000 H   0  0  0  0  0  0  0  0  0  0  0  0
    0.0000    0.0000    0.0000 H   0  0  0  0  0  0  0  0  0  0  0  0
  1  2  1  0
  2  7  2  0
  2  3  1  0
  3  4  2  0
  4  5  1  0
  5  6  2  0
  6  7  1  0
  7  8  1  0
  8  9  1  0
  9 10  2  0
  9 11  1  0
 11 12  1  0
 11 13  1  0
  5 14  1  0
 14 15  1  0
 14 16  1  0
  3 17  1  0
  1 18  1  0
  1 19  1  0
  1 20  1  0
 12 21  1  0
 12 22  1  0
 12 23  1  0
 13 24  1  0
 13 25  1  0
 13 26  1  0
 15 27  1  0
 15 28  1  0
 15 29  1  0
 16 30  1  0
 16 31  1  0
 16 32  1  0
 17 33  1  0
 17 34  1  0
 17 35  1  0
M  END
>  <partial_charges>  (557) 
-0.0264999996871
-0.357699990273
0.488599985838
-0.755500018597
0.896399974823
-0.752499997616
0.698199987411
-0.492300003767
0.763100028038
-0.552900016308
-0.465499997139
0.0921000018716
0.0921000018716
-0.750800013542
0.201199993491
0.201199993491
-0.155399993062
0.0456000007689
0.0456000007689
0.0456000007689
0.0476000010967
0.0476000010967
0.0476000010967
0.0476000010967
0.0476000010967
0.0476000010967
0.0463999994099
0.0463999994099
0.0463999994099
0.0463999994099
0.0463999994099
0.0463999994099
0.0584999993443
0.0584999993443
0.0584999993443

>  <partial_bond_orders>  (557) 
1.0
2.0
1.0
2.0
1.0
2.0
1.0
1.0
1.0
2.0
1.0
1.0
1.0
1.0
1.0
1.0
1.0
1.0
1.0
1.0
1.0
1.0
1.0
1.0
1.0
1.0
1.0
1.0
1.0
1.0
1.0
1.0
1.0
1.0
1.0

>  <atom_types>  (557) 
c3
ca
ca
nb
ca
nb
ca
os
c
o
n
c3
c3
nh
c3
c3
c3
hc
hc
hc
h1
h1
h1
h1
h1
h1
h1
h1
h1
h1
h1
h1
hc
hc
hc

>  <target>  (557) 
-9.41

>  <cal>  (557) 
-13.87

$$$$
mobley_819018
     RDKit          3D

 29 28  0  0  0  0  0  0  0  0999 V2000
   -6.1490   -0.6680    5.1830 C   0  0  0  0  0  0  0  0  0  0  0  0
   -5.0690   -1.0550    4.2070 C   0  0  0  0  0  0  0  0  0  0  0  0
   -4.9010   -0.3570    3.0680 C   0  0  0  0  0  0  0  0  0  0  0  0
   -3.8950   -0.5910    1.9760 C   0  0  0  0  0  0  0  0  0  0  0  0
   -2.9670    0.6120    1.7610 C   0  0  0  0  0  0  0  0  0  0  0  0
   -1.9420    0.4040    0.6650 C   0  0  0  0  0  0  0  0  0  0  0  0
   -1.8340    1.1630   -0.4420 C   0  0  0  0  0  0  0  0  0  0  0  0
   -0.8540    1.0220   -1.5630 C   0  0  0  0  0  0  0  0  0  0  0  0
   -0.0930    2.2190   -1.6530 O   0  0  0  0  0  0  0  0  0  0  0  0
   -1.0220   -0.7730    0.8650 C   0  0  0  0  0  0  0  0  0  0  0  0
   -4.2400   -2.2320    4.6360 C   0  0  0  0  0  0  0  0  0  0  0  0
    0.0000    0.0000    0.0000 H   0  0  0  0  0  0  0  0  0  0  0  0
    0.0000    0.0000    0.0000 H   0  0  0  0  0  0  0  0  0  0  0  0
    0.0000    0.0000    0.0000 H   0  0  0  0  0  0  0  0  0  0  0  0
    0.0000    0.0000    0.0000 H   0  0  0  0  0  0  0  0  0  0  0  0
    0.0000    0.0000    0.0000 H   0  0  0  0  0  0  0  0  0  0  0  0
    0.0000    0.0000    0.0000 H   0  0  0  0  0  0  0  0  0  0  0  0
    0.0000    0.0000    0.0000 H   0  0  0  0  0  0  0  0  0  0  0  0
    0.0000    0.0000    0.0000 H   0  0  0  0  0  0  0  0  0  0  0  0
    0.0000    0.0000    0.0000 H   0  0  0  0  0  0  0  0  0  0  0  0
    0.0000    0.0000    0.0000 H   0  0  0  0  0  0  0  0  0  0  0  0
    0.0000    0.0000    0.0000 H   0  0  0  0  0  0  0  0  0  0  0  0
    0.0000    0.0000    0.0000 H   0  0  0  0  0  0  0  0  0  0  0  0
    0.0000    0.0000    0.0000 H   0  0  0  0  0  0  0  0  0  0  0  0
    0.0000    0.0000    0.0000 H   0  0  0  0  0  0  0  0  0  0  0  0
    0.0000    0.0000    0.0000 H   0  0  0  0  0  0  0  0  0  0  0  0
    0.0000    0.0000    0.0000 H   0  0  0  0  0  0  0  0  0  0  0  0
    0.0000    0.0000    0.0000 H   0  0  0  0  0  0  0  0  0  0  0  0
    0.0000    0.0000    0.0000 H   0  0  0  0  0  0  0  0  0  0  0  0
  1  2  1  0
  2  3  2  0
  3  4  1  0
  4  5  1  0
  5  6  1  0
  6  7  2  0
  7  8  1  0
  8  9  1  0
  6 10  1  0
  2 11  1  0
  1 12  1  0
  1 13  1  0
  1 14  1  0
  3 15  1  0
  4 16  1  0
  4 17  1  0
  5 18  1  0
  5 19  1  0
  7 20  1  0
  8 21  1  0
  8 22  1  0
  9 23  1  0
 10 24  1  0
 10 25  1  0
 10 26  1  0
 11 27  1  0
 11 28  1  0
 11 29  1  0
M  END
>  <partial_charges>  (558) 
-0.0606999993324
-0.111900001764
-0.177699998021
-0.0439999997616
-0.0445000007749
-0.0958999991417
-0.175200000405
0.164499998093
-0.595499992371
-0.0657000020146
-0.0606999993324
0.0408000014722
0.0408000014722
0.0408000014722
0.117399998009
0.0476000010967
0.0476000010967
0.0502999983728
0.0502999983728
0.133499994874
0.0241999998689
0.0241999998689
0.397799998522
0.0432000011206
0.0432000011206
0.0432000011206
0.0408000014722
0.0408000014722
0.0408000014722

>  <partial_bond_orders>  (558) 
1.0
2.0
1.0
1.0
1.0
2.0
1.0
1.0
1.0
1.0
1.0
1.0
1.0
1.0
1.0
1.0
1.0
1.0
1.0
1.0
1.0
1.0
1.0
1.0
1.0
1.0
1.0
1.0

>  <atom_types>  (558) 
c3
c2
c2
c3
c3
c2
c2
c3
oh
c3
c3
hc
hc
hc
ha
hc
hc
hc
hc
ha
h1
h1
ho
hc
hc
hc
hc
hc
hc

>  <target>  (558) 
-4.45

>  <cal>  (558) 
-2.518

$$$$
mobley_7754849
     RDKit          3D

 41 40  0  0  0  0  0  0  0  0999 V2000
    0.3700    1.3240    3.0510 C   0  0  0  0  0  0  0  0  0  0  0  0
   -0.4860    0.5570    2.0670 C   0  0  0  0  0  0  0  0  0  0  0  0
    0.3520   -0.2460    1.2540 O   0  0  0  0  0  0  0  0  0  0  0  0
   -0.2800   -1.1990    0.0860 P   0  0  0  0  0  0  0  0  0  0  0  0
   -0.9930   -2.8610    0.8410 S   0  0  0  0  0  0  0  0  0  0  0  0
   -1.4370   -0.2240   -0.5290 O   0  0  0  0  0  0  0  0  0  0  0  0
   -2.2610   -0.6560   -1.5980 C   0  0  0  0  0  0  0  0  0  0  0  0
   -3.2330    0.4500   -1.9530 C   0  0  0  0  0  0  0  0  0  0  0  0
    1.1840   -1.3890   -1.4460 S   0  0  0  0  0  0  0  0  0  0  0  0
    1.4960    0.2920   -2.0280 C   0  0  0  0  0  0  0  0  0  0  0  0
    2.6160    1.1960   -0.9340 S   0  0  0  0  0  0  0  0  0  0  0  0
    2.8660    3.1390   -1.7700 P   0  0  0  0  0  0  0  0  0  0  0  0
    4.0320    4.4120   -0.8380 S   0  0  0  0  0  0  0  0  0  0  0  0
    1.3690    3.7460   -2.0260 O   0  0  0  0  0  0  0  0  0  0  0  0
    0.4700    3.9160   -0.9430 C   0  0  0  0  0  0  0  0  0  0  0  0
   -0.8300    4.4900   -1.4640 C   0  0  0  0  0  0  0  0  0  0  0  0
    3.2990    2.9350   -3.3330 O   0  0  0  0  0  0  0  0  0  0  0  0
    4.4840    2.2310   -3.6650 C   0  0  0  0  0  0  0  0  0  0  0  0
    4.6340    2.1970   -5.1720 C   0  0  0  0  0  0  0  0  0  0  0  0
    0.0000    0.0000    0.0000 H   0  0  0  0  0  0  0  0  0  0  0  0
    0.0000    0.0000    0.0000 H   0  0  0  0  0  0  0  0  0  0  0  0
    0.0000    0.0000    0.0000 H   0  0  0  0  0  0  0  0  0  0  0  0
    0.0000    0.0000    0.0000 H   0  0  0  0  0  0  0  0  0  0  0  0
    0.0000    0.0000    0.0000 H   0  0  0  0  0  0  0  0  0  0  0  0
    0.0000    0.0000    0.0000 H   0  0  0  0  0  0  0  0  0  0  0  0
    0.0000    0.0000    0.0000 H   0  0  0  0  0  0  0  0  0  0  0  0
    0.0000    0.0000    0.0000 H   0  0  0  0  0  0  0  0  0  0  0  0
    0.0000    0.0000    0.0000 H   0  0  0  0  0  0  0  0  0  0  0  0
    0.0000    0.0000    0.0000 H   0  0  0  0  0  0  0  0  0  0  0  0
    0.0000    0.0000    0.0000 H   0  0  0  0  0  0  0  0  0  0  0  0
    0.0000    0.0000    0.0000 H   0  0  0  0  0  0  0  0  0  0  0  0
    0.0000    0.0000    0.0000 H   0  0  0  0  0  0  0  0  0  0  0  0
    0.0000    0.0000    0.0000 H   0  0  0  0  0  0  0  0  0  0  0  0
    0.0000    0.0000    0.0000 H   0  0  0  0  0  0  0  0  0  0  0  0
    0.0000    0.0000    0.0000 H   0  0  0  0  0  0  0  0  0  0  0  0
    0.0000    0.0000    0.0000 H   0  0  0  0  0  0  0  0  0  0  0  0
    0.0000    0.0000    0.0000 H   0  0  0  0  0  0  0  0  0  0  0  0
    0.0000    0.0000    0.0000 H   0  0  0  0  0  0  0  0  0  0  0  0
    0.0000    0.0000    0.0000 H   0  0  0  0  0  0  0  0  0  0  0  0
    0.0000    0.0000    0.0000 H   0  0  0  0  0  0  0  0  0  0  0  0
    0.0000    0.0000    0.0000 H   0  0  0  0  0  0  0  0  0  0  0  0
  1  2  1  0
  2  3  1  0
  3  4  1  0
  4  5  2  0
  4  6  1  0
  6  7  1  0
  7  8  1  0
  4  9  1  0
  9 10  1  0
 10 11  1  0
 11 12  1  0
 12 13  2  0
 12 14  1  0
 14 15  1  0
 15 16  1  0
 12 17  1  0
 17 18  1  0
 18 19  1  0
  1 20  1  0
  1 21  1  0
  1 22  1  0
  2 23  1  0
  2 24  1  0
  7 25  1  0
  7 26  1  0
  8 27  1  0
  8 28  1  0
  8 29  1  0
 10 30  1  0
 10 31  1  0
 15 32  1  0
 15 33  1  0
 16 34  1  0
 16 35  1  0
 16 36  1  0
 18 37  1  0
 18 38  1  0
 19 39  1  0
 19 40  1  0
 19 41  1  0
M  END
>  <partial_charges>  (559) 
-0.107799999416
0.14090000093
-0.483300000429
0.828199982643
-0.468600004911
-0.483300000429
0.14090000093
-0.107799999416
-0.321900010109
0.286900013685
-0.321900010109
0.828199982643
-0.468600004911
-0.483300000429
0.14090000093
-0.107799999416
-0.483300000429
0.14090000093
-0.107799999416
0.0582999996841
0.0582999996841
0.0582999996841
0.0666000023484
0.0666000023484
0.0666000023484
0.0666000023484
0.0582999996841
0.0582999996841
0.0582999996841
0.103299997747
0.103299997747
0.0666000023484
0.0666000023484
0.0582999996841
0.0582999996841
0.0582999996841
0.0666000023484
0.0666000023484
0.0582999996841
0.0582999996841
0.0582999996841

>  <partial_bond_orders>  (559) 
1.0
1.0
1.0
2.0
1.0
1.0
1.0
1.0
1.0
1.0
1.0
2.0
1.0
1.0
1.0
1.0
1.0
1.0
1.0
1.0
1.0
1.0
1.0
1.0
1.0
1.0
1.0
1.0
1.0
1.0
1.0
1.0
1.0
1.0
1.0
1.0
1.0
1.0
1.0
1.0

>  <atom_types>  (559) 
c3
c3
os
p5
s
os
c3
c3
ss
c3
ss
p5
s
os
c3
c3
os
c3
c3
hc
hc
hc
h1
h1
h1
h1
hc
hc
hc
h2
h2
h1
h1
hc
hc
hc
h1
h1
hc
hc
hc

>  <target>  (559) 
-6.1

>  <cal>  (559) 
-10.644

$$$$
mobley_6266306
     RDKit          3D

 11 11  0  0  0  0  0  0  0  0999 V2000
    0.8690   -0.4840   -0.4590 C   0  0  0  0  0  0  0  0  0  0  0  0
    1.7750    0.4760   -1.2450 C   0  0  0  0  0  0  0  0  0  0  0  0
    1.0600    0.1020   -2.5170 N   0  0  0  0  0  0  0  0  0  0  0  0
    0.5740   -1.1400   -1.8170 C   0  0  0  0  0  0  0  0  0  0  0  0
    0.0000    0.0000    0.0000 H   0  0  0  0  0  0  0  0  0  0  0  0
    0.0000    0.0000    0.0000 H   0  0  0  0  0  0  0  0  0  0  0  0
    0.0000    0.0000    0.0000 H   0  0  0  0  0  0  0  0  0  0  0  0
    0.0000    0.0000    0.0000 H   0  0  0  0  0  0  0  0  0  0  0  0
    0.0000    0.0000    0.0000 H   0  0  0  0  0  0  0  0  0  0  0  0
    0.0000    0.0000    0.0000 H   0  0  0  0  0  0  0  0  0  0  0  0
    0.0000    0.0000    0.0000 H   0  0  0  0  0  0  0  0  0  0  0  0
  1  4  1  0
  1  2  1  0
  2  3  1  0
  3  4  1  0
  1  5  1  0
  1  6  1  0
  2  7  1  0
  2  8  1  0
  3  9  1  0
  4 10  1  0
  4 11  1  0
M  END
>  <partial_charges>  (560) 
-0.11779999733
0.124499998987
-0.78719997406
0.124499998987
0.0557000003755
0.0557000003755
0.0500999987125
0.0500999987125
0.344199985266
0.0500999987125
0.0500999987125

>  <partial_bond_orders>  (560) 
1.0
1.0
1.0
1.0
1.0
1.0
1.0
1.0
1.0
1.0
1.0

>  <atom_types>  (560) 
cy
cy
n3
cy
hc
hc
h1
h1
hn
h1
h1

>  <target>  (560) 
-5.56

>  <cal>  (560) 
-3.861

$$$$
mobley_3359593
     RDKit          3D

 26 26  0  0  0  0  0  0  0  0999 V2000
    1.3090   -2.2310   -3.7220 C   0  0  0  0  0  0  0  0  0  0  0  0
    1.2610   -2.2530   -2.2030 C   0  0  0  0  0  0  0  0  0  0  0  0
    1.9310   -1.0160   -1.6030 C   0  0  0  0  0  0  0  0  0  0  0  0
    1.8850   -1.0360   -0.1120 C   0  0  0  0  0  0  0  0  0  0  0  0
    2.9210   -1.6310    0.6080 C   0  0  0  0  0  0  0  0  0  0  0  0
    2.8780   -1.6520    2.0020 C   0  0  0  0  0  0  0  0  0  0  0  0
    1.8000   -1.0790    2.6760 C   0  0  0  0  0  0  0  0  0  0  0  0
    0.7640   -0.4840    1.9550 C   0  0  0  0  0  0  0  0  0  0  0  0
    0.8070   -0.4630    0.5610 C   0  0  0  0  0  0  0  0  0  0  0  0
   -0.2940    0.0800    2.6010 O   0  0  0  0  0  0  0  0  0  0  0  0
   -1.3110    0.6660    1.7910 C   0  0  0  0  0  0  0  0  0  0  0  0
    1.7690   -1.1060    4.0370 O   0  0  0  0  0  0  0  0  0  0  0  0
    0.0000    0.0000    0.0000 H   0  0  0  0  0  0  0  0  0  0  0  0
    0.0000    0.0000    0.0000 H   0  0  0  0  0  0  0  0  0  0  0  0
    0.0000    0.0000    0.0000 H   0  0  0  0  0  0  0  0  0  0  0  0
    0.0000    0.0000    0.0000 H   0  0  0  0  0  0  0  0  0  0  0  0
    0.0000    0.0000    0.0000 H   0  0  0  0  0  0  0  0  0  0  0  0
    0.0000    0.0000    0.0000 H   0  0  0  0  0  0  0  0  0  0  0  0
    0.0000    0.0000    0.0000 H   0  0  0  0  0  0  0  0  0  0  0  0
    0.0000    0.0000    0.0000 H   0  0  0  0  0  0  0  0  0  0  0  0
    0.0000    0.0000    0.0000 H   0  0  0  0  0  0  0  0  0  0  0  0
    0.0000    0.0000    0.0000 H   0  0  0  0  0  0  0  0  0  0  0  0
    0.0000    0.0000    0.0000 H   0  0  0  0  0  0  0  0  0  0  0  0
    0.0000    0.0000    0.0000 H   0  0  0  0  0  0  0  0  0  0  0  0
    0.0000    0.0000    0.0000 H   0  0  0  0  0  0  0  0  0  0  0  0
    0.0000    0.0000    0.0000 H   0  0  0  0  0  0  0  0  0  0  0  0
  1  2  1  0
  2  3  1  0
  3  4  1  0
  4  9  2  0
  4  5  1  0
  5  6  2  0
  6  7  1  0
  7  8  2  0
  8  9  1  0
  8 10  1  0
 10 11  1  0
  7 12  1  0
  1 13  1  0
  1 14  1  0
  1 15  1  0
  2 16  1  0
  2 17  1  0
  3 18  1  0
  3 19  1  0
  5 20  1  0
  6 21  1  0
  9 22  1  0
 11 23  1  0
 11 24  1  0
 11 25  1  0
 12 26  1  0
M  END
>  <partial_charges>  (561) 
-0.0962999984622
-0.0756999999285
-0.0326000005007
-0.101099997759
-0.0951000005007
-0.206799998879
0.109999999404
0.0644999966025
-0.108599998057
-0.328599989414
0.117399998009
-0.482800006866
0.0351000018418
0.0351000018418
0.0351000018418
0.0421000011265
0.0421000011265
0.0465999990702
0.0465999990702
0.136299997568
0.134200006723
0.146500006318
0.0397000014782
0.0397000014782
0.0397000014782
0.416999995708

>  <partial_bond_orders>  (561) 
1.0
1.0
1.0
2.0
1.0
2.0
1.0
2.0
1.0
1.0
1.0
1.0
1.0
1.0
1.0
1.0
1.0
1.0
1.0
1.0
1.0
1.0
1.0
1.0
1.0
1.0

>  <atom_types>  (561) 
c3
c3
c3
ca
ca
ca
ca
ca
ca
os
c3
oh
hc
hc
hc
hc
hc
hc
hc
ha
ha
ha
h1
h1
h1
ho

>  <target>  (561) 
-5.26

>  <cal>  (561) 
-4.127

$$$$
mobley_1199854
     RDKit          3D

 11 10  0  0  0  0  0  0  0  0999 V2000
   -0.5090   -0.5490    0.7980 C   0  0  0  0  0  0  0  0  0  0  0  0
    0.3040   -0.5210    2.0830 C   0  0  0  0  0  0  0  0  0  0  0  0
    1.6750   -1.1640    1.8860 C   0  0  0  0  0  0  0  0  0  0  0  0
    2.8010   -1.1140    3.7030 I   0  0  0  0  0  0  0  0  0  0  0  0
    0.0000    0.0000    0.0000 H   0  0  0  0  0  0  0  0  0  0  0  0
    0.0000    0.0000    0.0000 H   0  0  0  0  0  0  0  0  0  0  0  0
    0.0000    0.0000    0.0000 H   0  0  0  0  0  0  0  0  0  0  0  0
    0.0000    0.0000    0.0000 H   0  0  0  0  0  0  0  0  0  0  0  0
    0.0000    0.0000    0.0000 H   0  0  0  0  0  0  0  0  0  0  0  0
    0.0000    0.0000    0.0000 H   0  0  0  0  0  0  0  0  0  0  0  0
    0.0000    0.0000    0.0000 H   0  0  0  0  0  0  0  0  0  0  0  0
  1  2  1  0
  2  3  1  0
  3  4  1  0
  1  5  1  0
  1  6  1  0
  1  7  1  0
  2  8  1  0
  2  9  1  0
  3 10  1  0
  3 11  1  0
M  END
>  <partial_charges>  (562) 
-0.0951000005007
-0.0769999995828
0.0694999992847
-0.255199998617
0.0368999987841
0.0368999987841
0.0368999987841
0.0522000007331
0.0522000007331
0.0712999999523
0.0712999999523

>  <partial_bond_orders>  (562) 
1.0
1.0
1.0
1.0
1.0
1.0
1.0
1.0
1.0
1.0

>  <atom_types>  (562) 
c3
c3
c3
i
hc
hc
hc
hc
hc
h1
h1

>  <target>  (562) 
-0.53

>  <cal>  (562) 
-0.443

$$$$
mobley_7676709
     RDKit          3D

 27 27  0  0  1  0  0  0  0  0999 V2000
   -1.9960    1.5360   -1.7700 C   0  0  0  0  0  0  0  0  0  0  0  0
   -1.0220    0.7270   -0.9620 C   0  0  0  0  0  0  0  0  0  0  0  0
   -0.7020    1.0740    0.2940 C   0  0  0  0  0  0  0  0  0  0  0  0
    0.2130    0.2320    1.1070 C   0  0  0  0  0  0  0  0  0  0  0  0
    0.5330    0.6120    2.2330 O   0  0  0  0  0  0  0  0  0  0  0  0
    0.6490   -1.1110    0.5340 C   0  0  0  0  0  0  0  0  0  0  0  0
    0.8310   -0.9910   -0.9780 C   0  0  0  0  0  0  0  0  0  0  0  0
   -0.4420   -0.4810   -1.6510 C   0  0  0  0  0  0  0  0  0  0  0  0
    1.9370   -1.5980    1.1920 C   0  0  0  0  0  0  0  0  0  0  0  0
    2.1030   -3.1040    1.0000 C   0  0  0  0  0  0  0  0  0  0  0  0
    3.1440   -0.8500    0.6290 C   0  0  0  0  0  0  0  0  0  0  0  0
    0.0000    0.0000    0.0000 H   0  0  0  0  0  0  0  0  0  0  0  0
    0.0000    0.0000    0.0000 H   0  0  0  0  0  0  0  0  0  0  0  0
    0.0000    0.0000    0.0000 H   0  0  0  0  0  0  0  0  0  0  0  0
    0.0000    0.0000    0.0000 H   0  0  0  0  0  0  0  0  0  0  0  0
    0.0000    0.0000    0.0000 H   0  0  0  0  0  0  0  0  0  0  0  0
    0.0000    0.0000    0.0000 H   0  0  0  0  0  0  0  0  0  0  0  0
    0.0000    0.0000    0.0000 H   0  0  0  0  0  0  0  0  0  0  0  0
    0.0000    0.0000    0.0000 H   0  0  0  0  0  0  0  0  0  0  0  0
    0.0000    0.0000    0.0000 H   0  0  0  0  0  0  0  0  0  0  0  0
    0.0000    0.0000    0.0000 H   0  0  0  0  0  0  0  0  0  0  0  0
    0.0000    0.0000    0.0000 H   0  0  0  0  0  0  0  0  0  0  0  0
    0.0000    0.0000    0.0000 H   0  0  0  0  0  0  0  0  0  0  0  0
    0.0000    0.0000    0.0000 H   0  0  0  0  0  0  0  0  0  0  0  0
    0.0000    0.0000    0.0000 H   0  0  0  0  0  0  0  0  0  0  0  0
    0.0000    0.0000    0.0000 H   0  0  0  0  0  0  0  0  0  0  0  0
    0.0000    0.0000    0.0000 H   0  0  0  0  0  0  0  0  0  0  0  0
  1  2  1  0
  2  8  1  0
  2  3  2  0
  3  4  1  0
  4  5  2  0
  4  6  1  0
  6  7  1  0
  7  8  1  0
  6  9  1  0
  9 10  1  0
  9 11  1  0
  1 12  1  0
  1 13  1  0
  1 14  1  0
  3 15  1  0
  6 16  1  0
  7 17  1  0
  7 18  1  0
  8 19  1  0
  8 20  1  0
  9 21  1  0
 10 22  1  0
 10 23  1  0
 10 24  1  0
 11 25  1  0
 11 26  1  0
 11 27  1  0
M  END
>  <partial_charges>  (563) 
-0.0758000016212
-0.0381999984384
-0.259299993515
0.567499995232
-0.537899971008
-0.153899997473
0.0728000029922
-0.0732000023127
-0.0628999993205
-0.0625
-0.090300001204
-0.090300001204
0.0511999987066
0.0511999987066
0.0511999987066
0.147799998522
0.0526000000536
0.0526000000536
0.0571000017226
0.0571000017226
0.0741000026464
0.0348999984562
0.0348999984562
0.0348999984562
0.0348999984562
0.0348999984562
0.0348999984562

>  <partial_bond_orders>  (563) 
1.0
1.0
2.0
1.0
2.0
1.0
1.0
1.0
1.0
1.0
1.0
1.0
1.0
1.0
1.0
1.0
1.0
1.0
1.0
1.0
1.0
1.0
1.0
1.0
1.0
1.0
1.0

>  <atom_types>  (563) 
c3
c2
ce
c
o
c3
hc
c3
c3
c3
c3
c3
hc
hc
hc
ha
hc
hc
hc
hc
hc
hc
hc
hc
hc
hc
hc

>  <target>  (563) 
-4.51

>  <cal>  (563) 
-3.825

$$$$
mobley_4699732
     RDKit          3D

 11 10  0  0  1  0  0  0  0  0999 V2000
    0.8720   -0.5290    0.4010 C   0  0  0  0  0  0  0  0  0  0  0  0
    1.2560    0.0260    1.7670 C   0  0  0  0  0  0  0  0  0  0  0  0
    0.2160   -0.2400    2.8570 C   0  0  0  0  0  0  0  0  0  0  0  0
   -0.0990   -1.9710    3.1380 Cl  0  0  0  0  0  0  0  0  0  0  0  0
    2.8550   -0.6170    2.2520 Cl  0  0  0  0  0  0  0  0  0  0  0  0
    0.0000    0.0000    0.0000 H   0  0  0  0  0  0  0  0  0  0  0  0
    0.0000    0.0000    0.0000 H   0  0  0  0  0  0  0  0  0  0  0  0
    0.0000    0.0000    0.0000 H   0  0  0  0  0  0  0  0  0  0  0  0
    0.0000    0.0000    0.0000 H   0  0  0  0  0  0  0  0  0  0  0  0
    0.0000    0.0000    0.0000 H   0  0  0  0  0  0  0  0  0  0  0  0
    0.0000    0.0000    0.0000 H   0  0  0  0  0  0  0  0  0  0  0  0
  1  2  1  0
  2  3  1  0
  3  4  1  0
  2  5  1  0
  1  6  1  0
  1  7  1  0
  1  8  1  0
  2  9  1  0
  3 10  1  0
  3 11  1  0
M  END
>  <partial_charges>  (564) 
-0.105200000107
0.0483000017703
0.0750000029802
0.0225000008941
-0.171399995685
-0.184799998999
0.0551999993622
0.0551999993622
0.0551999993622
0.0750000029802
0.0750000029802

>  <partial_bond_orders>  (564) 
1.0
1.0
1.0
1.0
1.0
1.0
1.0
1.0
1.0
1.0

>  <atom_types>  (564) 
c3
c3
h1
c3
cl
cl
hc
hc
hc
h1
h1

>  <target>  (564) 
-1.27

>  <cal>  (564) 
-0.265

$$$$
mobley_1469079
     RDKit          3D

 22 24  0  0  0  0  0  0  0  0999 V2000
   -1.8580    0.7400    0.8000 C   0  0  0  0  0  0  0  0  0  0  0  0
   -1.0040   -0.2570    0.3260 C   0  0  0  0  0  0  0  0  0  0  0  0
   -1.4370   -1.5820    0.2690 C   0  0  0  0  0  0  0  0  0  0  0  0
   -2.7270   -1.9050    0.6890 C   0  0  0  0  0  0  0  0  0  0  0  0
   -3.5800   -0.9100    1.1630 C   0  0  0  0  0  0  0  0  0  0  0  0
   -3.1490    0.4150    1.2200 C   0  0  0  0  0  0  0  0  0  0  0  0
   -4.8560   -1.1830    1.5850 O   0  0  0  0  0  0  0  0  0  0  0  0
   -5.2390   -2.4980    1.5120 C   0  0  0  0  0  0  0  0  0  0  0  0
   -6.5290   -2.8210    1.9320 C   0  0  0  0  0  0  0  0  0  0  0  0
   -6.9620   -4.1460    1.8750 C   0  0  0  0  0  0  0  0  0  0  0  0
   -6.1070   -5.1430    1.4010 C   0  0  0  0  0  0  0  0  0  0  0  0
   -4.8170   -4.8180    0.9820 C   0  0  0  0  0  0  0  0  0  0  0  0
   -4.3860   -3.4940    1.0380 C   0  0  0  0  0  0  0  0  0  0  0  0
   -3.1090   -3.2200    0.6160 O   0  0  0  0  0  0  0  0  0  0  0  0
   -6.5910   -6.8010    1.3100 Cl  0  0  0  0  0  0  0  0  0  0  0  0
   -8.5700   -4.4910    2.4080 Cl  0  0  0  0  0  0  0  0  0  0  0  0
    0.0000    0.0000    0.0000 H   0  0  0  0  0  0  0  0  0  0  0  0
    0.0000    0.0000    0.0000 H   0  0  0  0  0  0  0  0  0  0  0  0
    0.0000    0.0000    0.0000 H   0  0  0  0  0  0  0  0  0  0  0  0
    0.0000    0.0000    0.0000 H   0  0  0  0  0  0  0  0  0  0  0  0
    0.0000    0.0000    0.0000 H   0  0  0  0  0  0  0  0  0  0  0  0
    0.0000    0.0000    0.0000 H   0  0  0  0  0  0  0  0  0  0  0  0
  1  6  2  0
  1  2  1  0
  2  3  2  0
  3  4  1  0
  4 14  1  0
  4  5  2  0
  5  6  1  0
  5  7  1  0
  7  8  1  0
  8 13  2  0
  8  9  1  0
  9 10  2  0
 10 11  1  0
 11 12  2  0
 12 13  1  0
 13 14  1  0
 11 15  1  0
 10 16  1  0
  1 17  1  0
  2 18  1  0
  3 19  1  0
  6 20  1  0
  9 21  1  0
 12 22  1  0
M  END
>  <partial_charges>  (565) 
-0.124899998307
-0.124799996614
-0.112999998033
0.0604999996722
0.0604999996722
-0.112999998033
-0.219600006938
0.0737000033259
-0.109499998391
0.0179999992251
0.0179999992251
-0.109499998391
0.0737000033259
-0.219600006938
-0.0573999993503
-0.0573999993503
0.142100006342
0.142100006342
0.15680000186
0.15680000186
0.173199996352
0.173199996352

>  <partial_bond_orders>  (565) 
2.0
1.0
2.0
1.0
1.0
2.0
1.0
1.0
1.0
2.0
1.0
2.0
1.0
2.0
1.0
1.0
1.0
1.0
1.0
1.0
1.0
1.0
1.0
1.0

>  <atom_types>  (565) 
ca
ca
ca
ca
ca
ca
os
ca
ca
ca
ca
ca
ca
os
cl
cl
ha
ha
ha
ha
ha
ha

>  <target>  (565) 
-3.56

>  <cal>  (565) 
-3.59

$$$$
mobley_486214
     RDKit          3D

 21 21  0  0  0  0  0  0  0  0999 V2000
    1.3510   -2.1280   -2.1490 C   0  0  0  0  0  0  0  0  0  0  0  0
    1.9390   -1.0220   -1.4740 O   0  0  0  0  0  0  0  0  0  0  0  0
    1.8850   -1.0360   -0.1120 C   0  0  0  0  0  0  0  0  0  0  0  0
    2.9210   -1.6310    0.6080 C   0  0  0  0  0  0  0  0  0  0  0  0
    2.8780   -1.6520    2.0020 C   0  0  0  0  0  0  0  0  0  0  0  0
    1.8000   -1.0790    2.6760 C   0  0  0  0  0  0  0  0  0  0  0  0
    0.7640   -0.4840    1.9550 C   0  0  0  0  0  0  0  0  0  0  0  0
    0.8070   -0.4630    0.5610 C   0  0  0  0  0  0  0  0  0  0  0  0
   -0.2060    0.1180   -0.1430 O   0  0  0  0  0  0  0  0  0  0  0  0
   -0.2840    0.0720    2.6250 O   0  0  0  0  0  0  0  0  0  0  0  0
   -0.2490    0.0080    4.0500 C   0  0  0  0  0  0  0  0  0  0  0  0
    0.0000    0.0000    0.0000 H   0  0  0  0  0  0  0  0  0  0  0  0
    0.0000    0.0000    0.0000 H   0  0  0  0  0  0  0  0  0  0  0  0
    0.0000    0.0000    0.0000 H   0  0  0  0  0  0  0  0  0  0  0  0
    0.0000    0.0000    0.0000 H   0  0  0  0  0  0  0  0  0  0  0  0
    0.0000    0.0000    0.0000 H   0  0  0  0  0  0  0  0  0  0  0  0
    0.0000    0.0000    0.0000 H   0  0  0  0  0  0  0  0  0  0  0  0
    0.0000    0.0000    0.0000 H   0  0  0  0  0  0  0  0  0  0  0  0
    0.0000    0.0000    0.0000 H   0  0  0  0  0  0  0  0  0  0  0  0
    0.0000    0.0000    0.0000 H   0  0  0  0  0  0  0  0  0  0  0  0
    0.0000    0.0000    0.0000 H   0  0  0  0  0  0  0  0  0  0  0  0
  1  2  1  0
  2  3  1  0
  3  8  2  0
  3  4  1  0
  4  5  2  0
  5  6  1  0
  6  7  2  0
  7  8  1  0
  8  9  1  0
  7 10  1  0
 10 11  1  0
  1 12  1  0
  1 13  1  0
  1 14  1  0
  4 15  1  0
  5 16  1  0
  6 17  1  0
  9 18  1  0
 11 19  1  0
 11 20  1  0
 11 21  1  0
M  END
>  <partial_charges>  (566) 
0.120600000024
-0.339800000191
0.0662999972701
-0.154100000858
-0.125900000334
-0.154100000858
0.0662999972701
0.1018999964
-0.480300009251
-0.339800000191
0.120600000024
0.043299999088
0.043299999088
0.043299999088
0.143399998546
0.137400001287
0.143399998546
0.434599995613
0.043299999088
0.043299999088
0.043299999088

>  <partial_bond_orders>  (566) 
1.0
1.0
2.0
1.0
2.0
1.0
2.0
1.0
1.0
1.0
1.0
1.0
1.0
1.0
1.0
1.0
1.0
1.0
1.0
1.0
1.0

>  <atom_types>  (566) 
c3
os
ca
ca
ca
ca
ca
ca
oh
os
c3
h1
h1
h1
ha
ha
ha
ho
h1
h1
h1

>  <target>  (566) 
-6.96

>  <cal>  (566) 
-7.393

$$$$
mobley_3323117
     RDKit          3D

 15 15  0  0  0  0  0  0  0  0999 V2000
    0.1370    1.6660    0.7410 C   0  0  0  0  0  0  0  0  0  0  0  0
    0.4960    1.5960   -0.7420 C   0  0  0  0  0  0  0  0  0  0  0  0
    0.9200    0.1560   -1.0070 C   0  0  0  0  0  0  0  0  0  0  0  0
   -0.1640   -0.8460    0.0000 S   0  0  0  0  0  0  0  0  0  0  0  0
   -0.7940    0.4890    1.0070 C   0  0  0  0  0  0  0  0  0  0  0  0
    0.6460   -1.7140    0.8290 O   0  0  0  0  0  0  0  0  0  0  0  0
   -1.2400   -1.3480   -0.8290 O   0  0  0  0  0  0  0  0  0  0  0  0
    0.0000    0.0000    0.0000 H   0  0  0  0  0  0  0  0  0  0  0  0
    0.0000    0.0000    0.0000 H   0  0  0  0  0  0  0  0  0  0  0  0
    0.0000    0.0000    0.0000 H   0  0  0  0  0  0  0  0  0  0  0  0
    0.0000    0.0000    0.0000 H   0  0  0  0  0  0  0  0  0  0  0  0
    0.0000    0.0000    0.0000 H   0  0  0  0  0  0  0  0  0  0  0  0
    0.0000    0.0000    0.0000 H   0  0  0  0  0  0  0  0  0  0  0  0
    0.0000    0.0000    0.0000 H   0  0  0  0  0  0  0  0  0  0  0  0
    0.0000    0.0000    0.0000 H   0  0  0  0  0  0  0  0  0  0  0  0
  1  5  1  0
  1  2  1  0
  2  3  1  0
  3  4  1  0
  4  5  1  0
  4  6  2  0
  4  7  2  0
  1  8  1  0
  1  9  1  0
  2 10  1  0
  2 11  1  0
  3 12  1  0
  3 13  1  0
  5 14  1  0
  5 15  1  0
M  END
>  <partial_charges>  (567) 
-0.0601999983191
-0.0601999983191
-0.310299992561
1.21480000019
-0.310299992561
-0.606500029564
-0.606500029564
0.0617999993265
0.0617999993265
0.0617999993265
0.0617999993265
0.123000003397
0.123000003397
0.123000003397
0.123000003397

>  <partial_bond_orders>  (567) 
1.0
1.0
1.0
1.0
1.0
2.0
2.0
1.0
1.0
1.0
1.0
1.0
1.0
1.0
1.0

>  <atom_types>  (567) 
c3
c3
c3
s6
c3
o
o
hc
hc
hc
hc
h1
h1
h1
h1

>  <target>  (567) 
-8.61

>  <cal>  (567) 
-9.624

$$$$
mobley_7977115
     RDKit          3D

 21 20  0  0  1  0  0  0  0  0999 V2000
    0.8930   -0.3160    0.3470 C   0  0  0  0  0  0  0  0  0  0  0  0
    1.2140    0.1400    1.7620 C   0  0  0  0  0  0  0  0  0  0  0  0
    0.1530   -0.3410    2.7580 C   0  0  0  0  0  0  0  0  0  0  0  0
    0.4590    0.1090    4.1930 C   0  0  0  0  0  0  0  0  0  0  0  0
   -0.6280   -0.2990    5.1950 C   0  0  0  0  0  0  0  0  0  0  0  0
   -0.3440    0.1380    6.6220 C   0  0  0  0  0  0  0  0  0  0  0  0
    0.5620    1.5340    4.2070 O   0  0  0  0  0  0  0  0  0  0  0  0
    0.0000    0.0000    0.0000 H   0  0  0  0  0  0  0  0  0  0  0  0
    0.0000    0.0000    0.0000 H   0  0  0  0  0  0  0  0  0  0  0  0
    0.0000    0.0000    0.0000 H   0  0  0  0  0  0  0  0  0  0  0  0
    0.0000    0.0000    0.0000 H   0  0  0  0  0  0  0  0  0  0  0  0
    0.0000    0.0000    0.0000 H   0  0  0  0  0  0  0  0  0  0  0  0
    0.0000    0.0000    0.0000 H   0  0  0  0  0  0  0  0  0  0  0  0
    0.0000    0.0000    0.0000 H   0  0  0  0  0  0  0  0  0  0  0  0
    0.0000    0.0000    0.0000 H   0  0  0  0  0  0  0  0  0  0  0  0
    0.0000    0.0000    0.0000 H   0  0  0  0  0  0  0  0  0  0  0  0
    0.0000    0.0000    0.0000 H   0  0  0  0  0  0  0  0  0  0  0  0
    0.0000    0.0000    0.0000 H   0  0  0  0  0  0  0  0  0  0  0  0
    0.0000    0.0000    0.0000 H   0  0  0  0  0  0  0  0  0  0  0  0
    0.0000    0.0000    0.0000 H   0  0  0  0  0  0  0  0  0  0  0  0
    0.0000    0.0000    0.0000 H   0  0  0  0  0  0  0  0  0  0  0  0
  1  2  1  0
  2  3  1  0
  3  4  1  0
  4  5  1  0
  5  6  1  0
  4  7  1  0
  1  8  1  0
  1  9  1  0
  1 10  1  0
  2 11  1  0
  2 12  1  0
  3 13  1  0
  3 14  1  0
  4 15  1  0
  5 16  1  0
  5 17  1  0
  6 18  1  0
  6 19  1  0
  6 20  1  0
  7 21  1  0
M  END
>  <partial_charges>  (568) 
-0.0921000018716
-0.0794000029564
-0.111299999058
0.134900003672
0.0751999989152
-0.111199997365
-0.0908000022173
-0.594799995422
0.0328000001609
0.0328000001609
0.0328000001609
0.0467999987304
0.0467999987304
0.0423000007868
0.0423000007868
0.0421000011265
0.0421000011265
0.0379999987781
0.0379999987781
0.0379999987781
0.394800007343

>  <partial_bond_orders>  (568) 
1.0
1.0
1.0
1.0
1.0
1.0
1.0
1.0
1.0
1.0
1.0
1.0
1.0
1.0
1.0
1.0
1.0
1.0
1.0
1.0

>  <atom_types>  (568) 
c3
c3
c3
c3
h1
c3
c3
oh
hc
hc
hc
hc
hc
hc
hc
hc
hc
hc
hc
hc
ho

>  <target>  (568) 
-4.06

>  <cal>  (568) 
-2.585

$$$$
mobley_2402487
     RDKit          3D

 23 22  0  0  0  0  0  0  0  0999 V2000
    0.5990   -0.5110    1.9480 C   0  0  0  0  0  0  0  0  0  0  0  0
    0.0980   -0.9060    0.5760 C   0  0  0  0  0  0  0  0  0  0  0  0
   -1.1710   -1.5560    0.7110 O   0  0  0  0  0  0  0  0  0  0  0  0
   -1.7480   -1.9700   -0.4570 C   0  0  0  0  0  0  0  0  0  0  0  0
   -1.2750   -1.8310   -1.5750 O   0  0  0  0  0  0  0  0  0  0  0  0
   -3.0690   -2.6260   -0.1360 C   0  0  0  0  0  0  0  0  0  0  0  0
   -3.8570   -3.1510   -1.3110 C   0  0  0  0  0  0  0  0  0  0  0  0
   -3.5160   -3.0880   -2.4840 O   0  0  0  0  0  0  0  0  0  0  0  0
   -5.0150   -3.7110   -0.8470 O   0  0  0  0  0  0  0  0  0  0  0  0
   -5.8790   -4.2610   -1.8470 C   0  0  0  0  0  0  0  0  0  0  0  0
   -7.1000   -4.8330   -1.1670 C   0  0  0  0  0  0  0  0  0  0  0  0
    0.0000    0.0000    0.0000 H   0  0  0  0  0  0  0  0  0  0  0  0
    0.0000    0.0000    0.0000 H   0  0  0  0  0  0  0  0  0  0  0  0
    0.0000    0.0000    0.0000 H   0  0  0  0  0  0  0  0  0  0  0  0
    0.0000    0.0000    0.0000 H   0  0  0  0  0  0  0  0  0  0  0  0
    0.0000    0.0000    0.0000 H   0  0  0  0  0  0  0  0  0  0  0  0
    0.0000    0.0000    0.0000 H   0  0  0  0  0  0  0  0  0  0  0  0
    0.0000    0.0000    0.0000 H   0  0  0  0  0  0  0  0  0  0  0  0
    0.0000    0.0000    0.0000 H   0  0  0  0  0  0  0  0  0  0  0  0
    0.0000    0.0000    0.0000 H   0  0  0  0  0  0  0  0  0  0  0  0
    0.0000    0.0000    0.0000 H   0  0  0  0  0  0  0  0  0  0  0  0
    0.0000    0.0000    0.0000 H   0  0  0  0  0  0  0  0  0  0  0  0
    0.0000    0.0000    0.0000 H   0  0  0  0  0  0  0  0  0  0  0  0
  1  2  1  0
  2  3  1  0
  3  4  1  0
  4  5  2  0
  4  6  1  0
  6  7  1  0
  7  8  2  0
  7  9  1  0
  9 10  1  0
 10 11  1  0
  1 12  1  0
  1 13  1  0
  1 14  1  0
  2 15  1  0
  2 16  1  0
  6 17  1  0
  6 18  1  0
 10 19  1  0
 10 20  1  0
 11 21  1  0
 11 22  1  0
 11 23  1  0
M  END
>  <partial_charges>  (569) 
-0.124899998307
0.135700002313
-0.446399986744
0.644400000572
-0.509899973869
-0.19050000608
0.644400000572
-0.509899973869
-0.446399986744
0.135700002313
-0.124899998307
0.0502000004053
0.0502000004053
0.0502000004053
0.0652000010014
0.0652000010014
0.115400001407
0.115400001407
0.0652000010014
0.0652000010014
0.0502000004053
0.0502000004053
0.0502000004053

>  <partial_bond_orders>  (569) 
1.0
1.0
1.0
2.0
1.0
1.0
2.0
1.0
1.0
1.0
1.0
1.0
1.0
1.0
1.0
1.0
1.0
1.0
1.0
1.0
1.0
1.0

>  <atom_types>  (569) 
c3
c3
os
c
o
c3
c
o
os
c3
c3
hc
hc
hc
h1
h1
hc
hc
h1
h1
hc
hc
hc

>  <target>  (569) 
-6.0

>  <cal>  (569) 
-6.716

$$$$
mobley_5449201
     RDKit          3D

 17 16  0  0  0  0  0  0  0  0999 V2000
   -0.5110    0.9040   -0.3450 C   0  0  0  0  0  0  0  0  0  0  0  0
   -0.5700    0.9510   -1.8630 C   0  0  0  0  0  0  0  0  0  0  0  0
    0.8290    0.9520   -2.4790 C   0  0  0  0  0  0  0  0  0  0  0  0
    0.7650    1.0000   -4.0050 C   0  0  0  0  0  0  0  0  0  0  0  0
    2.1550    1.0000   -4.6210 C   0  0  0  0  0  0  0  0  0  0  0  0
    0.0000    0.0000    0.0000 H   0  0  0  0  0  0  0  0  0  0  0  0
    0.0000    0.0000    0.0000 H   0  0  0  0  0  0  0  0  0  0  0  0
    0.0000    0.0000    0.0000 H   0  0  0  0  0  0  0  0  0  0  0  0
    0.0000    0.0000    0.0000 H   0  0  0  0  0  0  0  0  0  0  0  0
    0.0000    0.0000    0.0000 H   0  0  0  0  0  0  0  0  0  0  0  0
    0.0000    0.0000    0.0000 H   0  0  0  0  0  0  0  0  0  0  0  0
    0.0000    0.0000    0.0000 H   0  0  0  0  0  0  0  0  0  0  0  0
    0.0000    0.0000    0.0000 H   0  0  0  0  0  0  0  0  0  0  0  0
    0.0000    0.0000    0.0000 H   0  0  0  0  0  0  0  0  0  0  0  0
    0.0000    0.0000    0.0000 H   0  0  0  0  0  0  0  0  0  0  0  0
    0.0000    0.0000    0.0000 H   0  0  0  0  0  0  0  0  0  0  0  0
    0.0000    0.0000    0.0000 H   0  0  0  0  0  0  0  0  0  0  0  0
  1  2  1  0
  2  3  1  0
  3  4  1  0
  4  5  1  0
  1  6  1  0
  1  7  1  0
  1  8  1  0
  2  9  1  0
  2 10  1  0
  3 11  1  0
  3 12  1  0
  4 13  1  0
  4 14  1  0
  5 15  1  0
  5 16  1  0
  5 17  1  0
M  END
>  <partial_charges>  (570) 
-0.0921000018716
-0.0794999971986
-0.0790000036359
-0.0794999971986
-0.0921000018716
0.0324000008404
0.0324000008404
0.0324000008404
0.0377000011504
0.0377000011504
0.0384000018239
0.0384000018239
0.0377000011504
0.0377000011504
0.0324000008404
0.0324000008404
0.0324000008404

>  <partial_bond_orders>  (570) 
1.0
1.0
1.0
1.0
1.0
1.0
1.0
1.0
1.0
1.0
1.0
1.0
1.0
1.0
1.0
1.0

>  <atom_types>  (570) 
c3
c3
c3
c3
c3
hc
hc
hc
hc
hc
hc
hc
hc
hc
hc
hc
hc

>  <target>  (570) 
2.3

>  <cal>  (570) 
2.673

$$$$
mobley_1352110
     RDKit          3D

 34 33  0  0  0  0  0  0  0  0999 V2000
   -2.7020    2.5860   -1.3200 C   0  0  0  0  0  0  0  0  0  0  0  0
   -3.0960    2.5440    0.1480 C   0  0  0  0  0  0  0  0  0  0  0  0
   -1.9930    3.1210    1.0390 C   0  0  0  0  0  0  0  0  0  0  0  0
   -2.3610    3.0920    2.5190 C   0  0  0  0  0  0  0  0  0  0  0  0
   -1.3230    3.6340    3.3520 N   0  0  0  0  0  0  0  0  0  0  0  0
   -1.2790    5.0640    3.6920 C   0  0  0  0  0  0  0  0  0  0  0  0
   -2.0400    5.3100    4.9360 C   0  0  0  0  0  0  0  0  0  0  0  0
   -0.2930    2.8130    3.8840 C   0  0  0  0  0  0  0  0  0  0  0  0
    0.6220    3.2110    4.6010 O   0  0  0  0  0  0  0  0  0  0  0  0
   -0.3730    1.1030    3.4240 S   0  0  0  0  0  0  0  0  0  0  0  0
    1.0710    0.4480    4.2870 C   0  0  0  0  0  0  0  0  0  0  0  0
    1.2200   -1.0520    4.0380 C   0  0  0  0  0  0  0  0  0  0  0  0
    2.4340   -1.6180    4.7600 C   0  0  0  0  0  0  0  0  0  0  0  0
    0.0000    0.0000    0.0000 H   0  0  0  0  0  0  0  0  0  0  0  0
    0.0000    0.0000    0.0000 H   0  0  0  0  0  0  0  0  0  0  0  0
    0.0000    0.0000    0.0000 H   0  0  0  0  0  0  0  0  0  0  0  0
    0.0000    0.0000    0.0000 H   0  0  0  0  0  0  0  0  0  0  0  0
    0.0000    0.0000    0.0000 H   0  0  0  0  0  0  0  0  0  0  0  0
    0.0000    0.0000    0.0000 H   0  0  0  0  0  0  0  0  0  0  0  0
    0.0000    0.0000    0.0000 H   0  0  0  0  0  0  0  0  0  0  0  0
    0.0000    0.0000    0.0000 H   0  0  0  0  0  0  0  0  0  0  0  0
    0.0000    0.0000    0.0000 H   0  0  0  0  0  0  0  0  0  0  0  0
    0.0000    0.0000    0.0000 H   0  0  0  0  0  0  0  0  0  0  0  0
    0.0000    0.0000    0.0000 H   0  0  0  0  0  0  0  0  0  0  0  0
    0.0000    0.0000    0.0000 H   0  0  0  0  0  0  0  0  0  0  0  0
    0.0000    0.0000    0.0000 H   0  0  0  0  0  0  0  0  0  0  0  0
    0.0000    0.0000    0.0000 H   0  0  0  0  0  0  0  0  0  0  0  0
    0.0000    0.0000    0.0000 H   0  0  0  0  0  0  0  0  0  0  0  0
    0.0000    0.0000    0.0000 H   0  0  0  0  0  0  0  0  0  0  0  0
    0.0000    0.0000    0.0000 H   0  0  0  0  0  0  0  0  0  0  0  0
    0.0000    0.0000    0.0000 H   0  0  0  0  0  0  0  0  0  0  0  0
    0.0000    0.0000    0.0000 H   0  0  0  0  0  0  0  0  0  0  0  0
    0.0000    0.0000    0.0000 H   0  0  0  0  0  0  0  0  0  0  0  0
    0.0000    0.0000    0.0000 H   0  0  0  0  0  0  0  0  0  0  0  0
  1  2  1  0
  2  3  1  0
  3  4  1  0
  4  5  1  0
  5  6  1  0
  6  7  1  0
  5  8  1  0
  8  9  2  0
  8 10  1  0
 10 11  1  0
 11 12  1  0
 12 13  1  0
  1 14  1  0
  1 15  1  0
  1 16  1  0
  2 17  1  0
  2 18  1  0
  3 19  1  0
  3 20  1  0
  4 21  1  0
  4 22  1  0
  6 23  1  0
  6 24  1  0
  7 25  1  0
  7 26  1  0
  7 27  1  0
 11 28  1  0
 11 29  1  0
 12 30  1  0
 12 31  1  0
 13 32  1  0
 13 33  1  0
 13 34  1  0
M  END
>  <partial_charges>  (571) 
-0.0935000032187
-0.0791999995708
-0.105099998415
0.101999998093
-0.465200006962
0.0939999967813
-0.114799998701
0.684599995613
-0.603100001812
-0.28069999814
0.00490000005811
-0.0724999979138
-0.0989999994636
0.0307999998331
0.0307999998331
0.0307999998331
0.0428999997675
0.0428999997675
0.0575000010431
0.0575000010431
0.0524999983609
0.0524999983609
0.056099999696
0.056099999696
0.0439999997616
0.0439999997616
0.0439999997616
0.0798999965191
0.0798999965191
0.0522000007331
0.0522000007331
0.0403999984264
0.0403999984264
0.0403999984264

>  <partial_bond_orders>  (571) 
1.0
1.0
1.0
1.0
1.0
1.0
1.0
2.0
1.0
1.0
1.0
1.0
1.0
1.0
1.0
1.0
1.0
1.0
1.0
1.0
1.0
1.0
1.0
1.0
1.0
1.0
1.0
1.0
1.0
1.0
1.0
1.0
1.0

>  <atom_types>  (571) 
c3
c3
c3
c3
n
c3
c3
c
o
ss
c3
c3
c3
hc
hc
hc
hc
hc
hc
hc
h1
h1
h1
h1
hc
hc
hc
h1
h1
hc
hc
hc
hc
hc

>  <target>  (571) 
-3.64

>  <cal>  (571) 
-4.573

$$$$
mobley_2996632
     RDKit          3D

  5  4  0  0  0  0  0  0  0  0999 V2000
    0.0100    0.0540   -0.1020 C   0  0  0  0  0  0  0  0  0  0  0  0
   -0.8250   -1.4850   -0.3710 Cl  0  0  0  0  0  0  0  0  0  0  0  0
   -0.9270    1.0900    0.9880 Cl  0  0  0  0  0  0  0  0  0  0  0  0
    1.6350   -0.2250    0.5480 Cl  0  0  0  0  0  0  0  0  0  0  0  0
    0.0000    0.0000    0.0000 H   0  0  0  0  0  0  0  0  0  0  0  0
  1  2  1  0
  1  3  1  0
  1  4  1  0
  1  5  1  0
M  END
>  <partial_charges>  (572) 
0.224299997091
-0.11439999938
-0.11439999938
-0.11439999938
0.118900001049

>  <partial_bond_orders>  (572) 
1.0
1.0
1.0
1.0

>  <atom_types>  (572) 
c3
cl
cl
cl
h3

>  <target>  (572) 
-1.08

>  <cal>  (572) 
0.285

$$$$
mobley_1881249
     RDKit          3D

 16 15  0  0  0  0  0  0  0  0999 V2000
    1.8920   -0.6090   -4.8580 C   0  0  0  0  0  0  0  0  0  0  0  0
    1.0380    0.3830   -4.0850 C   0  0  0  0  0  0  0  0  0  0  0  0
    1.1480    0.1610   -2.5790 C   0  0  0  0  0  0  0  0  0  0  0  0
    0.3030    1.1400   -1.7830 C   0  0  0  0  0  0  0  0  0  0  0  0
   -0.3870    2.0100   -2.3110 O   0  0  0  0  0  0  0  0  0  0  0  0
    0.3520    0.9910   -0.2840 C   0  0  0  0  0  0  0  0  0  0  0  0
    0.0000    0.0000    0.0000 H   0  0  0  0  0  0  0  0  0  0  0  0
    0.0000    0.0000    0.0000 H   0  0  0  0  0  0  0  0  0  0  0  0
    0.0000    0.0000    0.0000 H   0  0  0  0  0  0  0  0  0  0  0  0
    0.0000    0.0000    0.0000 H   0  0  0  0  0  0  0  0  0  0  0  0
    0.0000    0.0000    0.0000 H   0  0  0  0  0  0  0  0  0  0  0  0
    0.0000    0.0000    0.0000 H   0  0  0  0  0  0  0  0  0  0  0  0
    0.0000    0.0000    0.0000 H   0  0  0  0  0  0  0  0  0  0  0  0
    0.0000    0.0000    0.0000 H   0  0  0  0  0  0  0  0  0  0  0  0
    0.0000    0.0000    0.0000 H   0  0  0  0  0  0  0  0  0  0  0  0
    0.0000    0.0000    0.0000 H   0  0  0  0  0  0  0  0  0  0  0  0
  1  2  1  0
  2  3  1  0
  3  4  1  0
  4  5  2  0
  4  6  1  0
  1  7  1  0
  1  8  1  0
  1  9  1  0
  2 10  1  0
  2 11  1  0
  3 12  1  0
  3 13  1  0
  6 14  1  0
  6 15  1  0
  6 16  1  0
M  END
>  <partial_charges>  (573) 
-0.0930999964476
-0.076099999249
-0.179399996996
0.561900019646
-0.53409999609
-0.203199997544
0.0340000018477
0.0340000018477
0.0340000018477
0.0535000003874
0.0535000003874
0.0631000027061
0.0631000027061
0.0628999993205
0.0628999993205
0.0628999993205

>  <partial_bond_orders>  (573) 
1.0
1.0
1.0
2.0
1.0
1.0
1.0
1.0
1.0
1.0
1.0
1.0
1.0
1.0
1.0

>  <atom_types>  (573) 
c3
c3
c3
c
o
c3
hc
hc
hc
hc
hc
hc
hc
hc
hc
hc

>  <target>  (573) 
-3.52

>  <cal>  (573) 
-3.166

$$$$
mobley_430089
     RDKit          3D

 13 12  0  0  0  0  0  0  0  0999 V2000
   -1.3290    1.4120    0.0600 C   0  0  0  0  0  0  0  0  0  0  0  0
   -0.6630    0.0840   -0.2660 C   0  0  0  0  0  0  0  0  0  0  0  0
    0.7360   -0.0050    0.3400 C   0  0  0  0  0  0  0  0  0  0  0  0
    1.3710   -1.2910    0.0200 C   0  0  0  0  0  0  0  0  0  0  0  0
    1.8920   -2.3410   -0.2400 C   0  0  0  0  0  0  0  0  0  0  0  0
    0.0000    0.0000    0.0000 H   0  0  0  0  0  0  0  0  0  0  0  0
    0.0000    0.0000    0.0000 H   0  0  0  0  0  0  0  0  0  0  0  0
    0.0000    0.0000    0.0000 H   0  0  0  0  0  0  0  0  0  0  0  0
    0.0000    0.0000    0.0000 H   0  0  0  0  0  0  0  0  0  0  0  0
    0.0000    0.0000    0.0000 H   0  0  0  0  0  0  0  0  0  0  0  0
    0.0000    0.0000    0.0000 H   0  0  0  0  0  0  0  0  0  0  0  0
    0.0000    0.0000    0.0000 H   0  0  0  0  0  0  0  0  0  0  0  0
    0.0000    0.0000    0.0000 H   0  0  0  0  0  0  0  0  0  0  0  0
  1  2  1  0
  2  3  1  0
  3  4  1  0
  4  5  3  0
  1  6  1  0
  1  7  1  0
  1  8  1  0
  2  9  1  0
  2 10  1  0
  3 11  1  0
  3 12  1  0
  5 13  1  0
M  END
>  <partial_charges>  (574) 
-0.0938000008464
-0.0777999982238
-0.00300000002608
-0.137999996543
-0.162900000811
0.0348999984562
0.0348999984562
0.0348999984562
0.0458999983966
0.0458999983966
0.0579999983311
0.0579999983311
0.163200005889

>  <partial_bond_orders>  (574) 
1.0
1.0
1.0
3.0
1.0
1.0
1.0
1.0
1.0
1.0
1.0
1.0

>  <atom_types>  (574) 
c3
c3
c3
c1
c1
hc
hc
hc
hc
hc
hc
hc
ha

>  <target>  (574) 
0.01

>  <cal>  (574) 
0.47

$$$$
mobley_646007
     RDKit          3D

 14 14  0  0  0  0  0  0  0  0999 V2000
    0.3610   -0.3440   -1.1720 C   0  0  0  0  0  0  0  0  0  0  0  0
   -1.0610   -0.0530   -0.7050 C   0  0  0  0  0  0  0  0  0  0  0  0
   -0.9140    0.4540    0.7200 C   0  0  0  0  0  0  0  0  0  0  0  0
    0.3660   -0.0940    1.1570 N   0  0  0  0  0  0  0  0  0  0  0  0
    1.2480    0.0360    0.0000 C   0  0  0  0  0  0  0  0  0  0  0  0
    0.0000    0.0000    0.0000 H   0  0  0  0  0  0  0  0  0  0  0  0
    0.0000    0.0000    0.0000 H   0  0  0  0  0  0  0  0  0  0  0  0
    0.0000    0.0000    0.0000 H   0  0  0  0  0  0  0  0  0  0  0  0
    0.0000    0.0000    0.0000 H   0  0  0  0  0  0  0  0  0  0  0  0
    0.0000    0.0000    0.0000 H   0  0  0  0  0  0  0  0  0  0  0  0
    0.0000    0.0000    0.0000 H   0  0  0  0  0  0  0  0  0  0  0  0
    0.0000    0.0000    0.0000 H   0  0  0  0  0  0  0  0  0  0  0  0
    0.0000    0.0000    0.0000 H   0  0  0  0  0  0  0  0  0  0  0  0
    0.0000    0.0000    0.0000 H   0  0  0  0  0  0  0  0  0  0  0  0
  1  5  1  0
  1  2  1  0
  2  3  1  0
  3  4  1  0
  4  5  1  0
  1  6  1  0
  1  7  1  0
  2  8  1  0
  2  9  1  0
  3 10  1  0
  3 11  1  0
  4 12  1  0
  5 13  1  0
  5 14  1  0
M  END
>  <partial_charges>  (575) 
-0.0886000022292
-0.0886000022292
0.15340000391
-0.816299974918
0.15340000391
0.0465000011027
0.0465000011027
0.0465000011027
0.0465000011027
0.0355999991298
0.0355999991298
0.358500003815
0.0355999991298
0.0355999991298

>  <partial_bond_orders>  (575) 
1.0
1.0
1.0
1.0
1.0
1.0
1.0
1.0
1.0
1.0
1.0
1.0
1.0
1.0

>  <atom_types>  (575) 
c3
c3
c3
n3
c3
hc
hc
hc
hc
h1
h1
hn
h1
h1

>  <target>  (575) 
-5.48

>  <cal>  (575) 
-4.278

$$$$
mobley_2859600
     RDKit          3D

 16 16  0  0  0  0  0  0  0  0999 V2000
    1.3830   -0.0580   -2.3280 C   0  0  0  0  0  0  0  0  0  0  0  0
    1.9300   -1.0140   -1.5660 C   0  0  0  0  0  0  0  0  0  0  0  0
    1.8850   -1.0360   -0.1120 C   0  0  0  0  0  0  0  0  0  0  0  0
    2.9210   -1.6310    0.6080 C   0  0  0  0  0  0  0  0  0  0  0  0
    2.8780   -1.6520    2.0020 C   0  0  0  0  0  0  0  0  0  0  0  0
    1.8000   -1.0790    2.6760 C   0  0  0  0  0  0  0  0  0  0  0  0
    0.7640   -0.4840    1.9550 C   0  0  0  0  0  0  0  0  0  0  0  0
    0.8070   -0.4630    0.5610 C   0  0  0  0  0  0  0  0  0  0  0  0
    0.0000    0.0000    0.0000 H   0  0  0  0  0  0  0  0  0  0  0  0
    0.0000    0.0000    0.0000 H   0  0  0  0  0  0  0  0  0  0  0  0
    0.0000    0.0000    0.0000 H   0  0  0  0  0  0  0  0  0  0  0  0
    0.0000    0.0000    0.0000 H   0  0  0  0  0  0  0  0  0  0  0  0
    0.0000    0.0000    0.0000 H   0  0  0  0  0  0  0  0  0  0  0  0
    0.0000    0.0000    0.0000 H   0  0  0  0  0  0  0  0  0  0  0  0
    0.0000    0.0000    0.0000 H   0  0  0  0  0  0  0  0  0  0  0  0
    0.0000    0.0000    0.0000 H   0  0  0  0  0  0  0  0  0  0  0  0
  1  2  2  3
  2  3  1  0
  3  8  2  0
  3  4  1  0
  4  5  2  0
  5  6  1  0
  6  7  2  0
  7  8  1  0
  1  9  1  0
  1 10  1  0
  2 11  1  0
  4 12  1  0
  5 13  1  0
  6 14  1  0
  7 15  1  0
  8 16  1  0
M  END
>  <partial_charges>  (576) 
-0.208800002933
-0.114500001073
-0.0597000010312
-0.119099996984
-0.130500003695
-0.127800002694
-0.130500003695
-0.119099996984
0.11400000006
0.11400000006
0.124300003052
0.132499992847
0.131200000644
0.130400002003
0.131200000644
0.132499992847

>  <partial_bond_orders>  (576) 
2.0
1.0
2.0
1.0
2.0
1.0
2.0
1.0
1.0
1.0
1.0
1.0
1.0
1.0
1.0
1.0

>  <atom_types>  (576) 
c2
ce
ca
ca
ca
ca
ca
ca
ha
ha
ha
ha
ha
ha
ha
ha

>  <target>  (576) 
-1.24

>  <cal>  (576) 
-1.078

$$$$
mobley_7142697
     RDKit          3D

 19 18  0  0  0  0  0  0  0  0999 V2000
   -0.0030   -0.6400    0.8880 C   0  0  0  0  0  0  0  0  0  0  0  0
    1.2680   -0.4530    1.7000 C   0  0  0  0  0  0  0  0  0  0  0  0
    2.5110   -0.8070    0.8830 C   0  0  0  0  0  0  0  0  0  0  0  0
    3.7880   -0.6170    1.7030 C   0  0  0  0  0  0  0  0  0  0  0  0
    5.0270   -0.9710    0.8890 C   0  0  0  0  0  0  0  0  0  0  0  0
    6.2300   -0.7940    1.6550 N   0  0  0  0  0  0  0  0  0  0  0  0
    0.0000    0.0000    0.0000 H   0  0  0  0  0  0  0  0  0  0  0  0
    0.0000    0.0000    0.0000 H   0  0  0  0  0  0  0  0  0  0  0  0
    0.0000    0.0000    0.0000 H   0  0  0  0  0  0  0  0  0  0  0  0
    0.0000    0.0000    0.0000 H   0  0  0  0  0  0  0  0  0  0  0  0
    0.0000    0.0000    0.0000 H   0  0  0  0  0  0  0  0  0  0  0  0
    0.0000    0.0000    0.0000 H   0  0  0  0  0  0  0  0  0  0  0  0
    0.0000    0.0000    0.0000 H   0  0  0  0  0  0  0  0  0  0  0  0
    0.0000    0.0000    0.0000 H   0  0  0  0  0  0  0  0  0  0  0  0
    0.0000    0.0000    0.0000 H   0  0  0  0  0  0  0  0  0  0  0  0
    0.0000    0.0000    0.0000 H   0  0  0  0  0  0  0  0  0  0  0  0
    0.0000    0.0000    0.0000 H   0  0  0  0  0  0  0  0  0  0  0  0
    0.0000    0.0000    0.0000 H   0  0  0  0  0  0  0  0  0  0  0  0
    0.0000    0.0000    0.0000 H   0  0  0  0  0  0  0  0  0  0  0  0
  1  2  1  0
  2  3  1  0
  3  4  1  0
  4  5  1  0
  5  6  1  0
  1  7  1  0
  1  8  1  0
  1  9  1  0
  2 10  1  0
  2 11  1  0
  3 12  1  0
  3 13  1  0
  4 14  1  0
  4 15  1  0
  5 16  1  0
  5 17  1  0
  6 18  1  0
  6 19  1  0
M  END
>  <partial_charges>  (577) 
-0.0925000011921
-0.0803999975324
-0.0749000012875
-0.122199997306
0.149499997497
-0.903999984264
0.0333000011742
0.0333000011742
0.0333000011742
0.0379999987781
0.0379999987781
0.0414999984205
0.0414999984205
0.0379999987781
0.0379999987781
0.0515000000596
0.0515000000596
0.343400001526
0.343400001526

>  <partial_bond_orders>  (577) 
1.0
1.0
1.0
1.0
1.0
1.0
1.0
1.0
1.0
1.0
1.0
1.0
1.0
1.0
1.0
1.0
1.0
1.0

>  <atom_types>  (577) 
c3
c3
c3
c3
c3
n3
hc
hc
hc
hc
hc
hc
hc
hc
hc
h1
h1
hn
hn

>  <target>  (577) 
-4.09

>  <cal>  (577) 
-2.835

$$$$
mobley_1893815
     RDKit          3D

  8  7  0  0  0  0  0  0  0  0999 V2000
   -0.0330   -0.3770   -0.7220 C   0  0  0  0  0  0  0  0  0  0  0  0
    0.0290    0.4370    0.5740 C   0  0  0  0  0  0  0  0  0  0  0  0
    0.0560    2.1830    0.1540 Cl  0  0  0  0  0  0  0  0  0  0  0  0
    1.5130    0.0680    1.5040 Cl  0  0  0  0  0  0  0  0  0  0  0  0
   -1.4040    0.1360    1.6010 Cl  0  0  0  0  0  0  0  0  0  0  0  0
   -0.0650   -2.1430   -0.4540 Cl  0  0  0  0  0  0  0  0  0  0  0  0
    0.0000    0.0000    0.0000 H   0  0  0  0  0  0  0  0  0  0  0  0
    0.0000    0.0000    0.0000 H   0  0  0  0  0  0  0  0  0  0  0  0
  1  2  1  0
  2  3  1  0
  2  4  1  0
  2  5  1  0
  1  6  1  0
  1  7  1  0
  1  8  1  0
M  END
>  <partial_charges>  (578) 
0.00760000012815
0.24169999361
-0.104000002146
-0.104000002146
-0.104000002146
-0.134599998593
0.0987000018358
0.0987000018358

>  <partial_bond_orders>  (578) 
1.0
1.0
1.0
1.0
1.0
1.0
1.0

>  <atom_types>  (578) 
c3
c3
cl
cl
cl
cl
h1
h1

>  <target>  (578) 
-1.43

>  <cal>  (578) 
-0.091

$$$$
mobley_1527293
     RDKit          3D

 31 32  0  0  1  0  0  0  0  0999 V2000
    1.9230    0.4070   -2.1730 C   0  0  0  0  0  0  0  0  0  0  0  0
    1.9320   -1.0140   -1.6030 C   0  0  0  0  0  0  0  0  0  0  0  0
    1.8850   -1.0360   -0.1120 C   0  0  0  0  0  0  0  0  0  0  0  0
    2.9210   -1.6310    0.6080 C   0  0  0  0  0  0  0  0  0  0  0  0
    2.8780   -1.6520    2.0020 C   0  0  0  0  0  0  0  0  0  0  0  0
    1.8000   -1.0790    2.6760 C   0  0  0  0  0  0  0  0  0  0  0  0
    0.7640   -0.4840    1.9550 C   0  0  0  0  0  0  0  0  0  0  0  0
    0.8070   -0.4630    0.5610 C   0  0  0  0  0  0  0  0  0  0  0  0
   -0.2800    0.0720    2.5880 F   0  0  0  0  0  0  0  0  0  0  0  0
    1.7600   -1.1030    4.1220 C   0  0  0  0  0  0  0  0  0  0  0  0
    0.7070   -1.7380    4.7800 C   0  0  0  0  0  0  0  0  0  0  0  0
    0.6690   -1.7610    6.1740 C   0  0  0  0  0  0  0  0  0  0  0  0
    1.6830   -1.1490    6.9100 C   0  0  0  0  0  0  0  0  0  0  0  0
    2.7360   -0.5130    6.2520 C   0  0  0  0  0  0  0  0  0  0  0  0
    2.7750   -0.4900    4.8580 C   0  0  0  0  0  0  0  0  0  0  0  0
    0.8020   -1.8310   -2.2110 C   0  0  0  0  0  0  0  0  0  0  0  0
   -0.2700   -1.3800   -2.5960 O   0  0  0  0  0  0  0  0  0  0  0  0
    1.1070   -3.1530   -2.2850 O   0  0  0  0  0  0  0  0  0  0  0  0
    0.0000    0.0000    0.0000 H   0  0  0  0  0  0  0  0  0  0  0  0
    0.0000    0.0000    0.0000 H   0  0  0  0  0  0  0  0  0  0  0  0
    0.0000    0.0000    0.0000 H   0  0  0  0  0  0  0  0  0  0  0  0
    0.0000    0.0000    0.0000 H   0  0  0  0  0  0  0  0  0  0  0  0
    0.0000    0.0000    0.0000 H   0  0  0  0  0  0  0  0  0  0  0  0
    0.0000    0.0000    0.0000 H   0  0  0  0  0  0  0  0  0  0  0  0
    0.0000    0.0000    0.0000 H   0  0  0  0  0  0  0  0  0  0  0  0
    0.0000    0.0000    0.0000 H   0  0  0  0  0  0  0  0  0  0  0  0
    0.0000    0.0000    0.0000 H   0  0  0  0  0  0  0  0  0  0  0  0
    0.0000    0.0000    0.0000 H   0  0  0  0  0  0  0  0  0  0  0  0
    0.0000    0.0000    0.0000 H   0  0  0  0  0  0  0  0  0  0  0  0
    0.0000    0.0000    0.0000 H   0  0  0  0  0  0  0  0  0  0  0  0
    0.0000    0.0000    0.0000 H   0  0  0  0  0  0  0  0  0  0  0  0
  1  2  1  0
  2  3  1  0
  3  8  2  0
  3  4  1  0
  4  5  2  0
  5  6  1  0
  6  7  2  0
  7  8  1  0
  7  9  1  0
  6 10  1  0
 10 15  1  0
 10 11  2  0
 11 12  1  0
 12 13  2  0
 13 14  1  0
 14 15  2  0
  2 16  1  0
 16 17  2  0
 16 18  1  0
  1 19  1  0
  1 20  1  0
  1 21  1  0
  2 22  1  0
  4 23  1  0
  5 24  1  0
  8 25  1  0
 11 26  1  0
 12 27  1  0
 13 28  1  0
 14 29  1  0
 15 30  1  0
 18 31  1  0
M  END
>  <partial_charges>  (579) 
-0.0882999971509
-0.0579000003636
0.0885000005364
-0.0590999983251
-0.123300001025
-0.0931999981403
-0.0627000033855
0.138099998236
-0.154100000858
-0.133499994874
-0.0498999990523
-0.108300000429
-0.131200000644
-0.122500002384
-0.131200000644
-0.108300000429
0.633599996567
-0.537400007248
-0.610800027847
0.0520000010729
0.0520000010729
0.0520000010729
0.1412999928
0.145899996161
0.149000003934
0.138099998236
0.13369999826
0.131400004029
0.13369999826
0.138099998236
0.444200009108

>  <partial_bond_orders>  (579) 
1.0
1.0
1.0
2.0
1.0
2.0
1.0
2.0
1.0
1.0
1.0
2.0
1.0
2.0
1.0
2.0
1.0
1.0
2.0
1.0
1.0
1.0
1.0
1.0
1.0
1.0
1.0
1.0
1.0
1.0
1.0
1.0

>  <atom_types>  (579) 
c3
c3
hc
ca
ca
ca
cp
ca
ca
f
cp
ca
ca
ca
ca
ca
c
o
oh
hc
hc
hc
ha
ha
ha
ha
ha
ha
ha
ha
ho

>  <target>  (579) 
-8.42

>  <cal>  (579) 
-13.953

$$$$
mobley_2457863
     RDKit          3D

 17 17  0  0  0  0  0  0  0  0999 V2000
    0.8350   -0.3930   -2.1380 C   0  0  0  0  0  0  0  0  0  0  0  0
    1.9270   -1.0160   -1.4730 O   0  0  0  0  0  0  0  0  0  0  0  0
    1.8850   -1.0360   -0.1120 C   0  0  0  0  0  0  0  0  0  0  0  0
    2.9210   -1.6310    0.6080 C   0  0  0  0  0  0  0  0  0  0  0  0
    2.8780   -1.6520    2.0020 C   0  0  0  0  0  0  0  0  0  0  0  0
    1.8000   -1.0790    2.6760 C   0  0  0  0  0  0  0  0  0  0  0  0
    0.7640   -0.4840    1.9550 C   0  0  0  0  0  0  0  0  0  0  0  0
    0.8070   -0.4630    0.5610 C   0  0  0  0  0  0  0  0  0  0  0  0
   -0.2880    0.0750    2.6130 O   0  0  0  0  0  0  0  0  0  0  0  0
    0.0000    0.0000    0.0000 H   0  0  0  0  0  0  0  0  0  0  0  0
    0.0000    0.0000    0.0000 H   0  0  0  0  0  0  0  0  0  0  0  0
    0.0000    0.0000    0.0000 H   0  0  0  0  0  0  0  0  0  0  0  0
    0.0000    0.0000    0.0000 H   0  0  0  0  0  0  0  0  0  0  0  0
    0.0000    0.0000    0.0000 H   0  0  0  0  0  0  0  0  0  0  0  0
    0.0000    0.0000    0.0000 H   0  0  0  0  0  0  0  0  0  0  0  0
    0.0000    0.0000    0.0000 H   0  0  0  0  0  0  0  0  0  0  0  0
    0.0000    0.0000    0.0000 H   0  0  0  0  0  0  0  0  0  0  0  0
  1  2  1  0
  2  3  1  0
  3  8  2  0
  3  4  1  0
  4  5  2  0
  5  6  1  0
  6  7  2  0
  7  8  1  0
  7  9  1  0
  1 10  1  0
  1 11  1  0
  1 12  1  0
  4 13  1  0
  5 14  1  0
  6 15  1  0
  8 16  1  0
  9 17  1  0
M  END
>  <partial_charges>  (580) 
0.108900003135
-0.319299995899
0.157000005245
-0.189199998975
-0.068400003016
-0.190200001001
0.155799999833
-0.289099991322
-0.495999991894
0.0450000017881
0.0450000017881
0.0450000017881
0.150900006294
0.136500000954
0.151800006628
0.138099998236
0.418399989605

>  <partial_bond_orders>  (580) 
1.0
1.0
2.0
1.0
2.0
1.0
2.0
1.0
1.0
1.0
1.0
1.0
1.0
1.0
1.0
1.0
1.0

>  <atom_types>  (580) 
c3
os
ca
ca
ca
ca
ca
ca
oh
h1
h1
h1
ha
ha
ha
ha
ho

>  <target>  (580) 
-7.66

>  <cal>  (580) 
-6.969

$$$$
mobley_1838110
     RDKit          3D

  8  7  0  0  0  0  0  0  0  0999 V2000
   -0.6020    0.0910    0.4860 C   0  0  0  0  0  0  0  0  0  0  0  0
    0.4990   -0.1460   -0.5420 C   0  0  0  0  0  0  0  0  0  0  0  0
   -0.0660   -0.7830   -1.6080 F   0  0  0  0  0  0  0  0  0  0  0  0
    1.7890   -1.1970    0.0980 Cl  0  0  0  0  0  0  0  0  0  0  0  0
    1.1980    1.3840   -1.1300 Cl  0  0  0  0  0  0  0  0  0  0  0  0
   -1.1240   -1.1060    0.8660 F   0  0  0  0  0  0  0  0  0  0  0  0
   -1.6210    0.7750   -0.0990 F   0  0  0  0  0  0  0  0  0  0  0  0
   -0.0720    0.9730    1.9340 Cl  0  0  0  0  0  0  0  0  0  0  0  0
  1  2  1  0
  2  3  1  0
  2  4  1  0
  2  5  1  0
  1  6  1  0
  1  7  1  0
  1  8  1  0
M  END
>  <partial_charges>  (581) 
0.494599997997
0.340000003576
-0.157499998808
-0.0939000025392
-0.0939000025392
-0.183699995279
-0.183699995279
-0.121799997985

>  <partial_bond_orders>  (581) 
1.0
1.0
1.0
1.0
1.0
1.0
1.0

>  <atom_types>  (581) 
c3
c3
f
cl
cl
f
f
cl

>  <target>  (581) 
1.77

>  <cal>  (581) 
1.691

$$$$
mobley_3546460
     RDKit          3D

 21 20  0  0  0  0  0  0  0  0999 V2000
    1.7560   -1.3900    0.8920 C   0  0  0  0  0  0  0  0  0  0  0  0
    1.1580   -1.8700    2.2060 C   0  0  0  0  0  0  0  0  0  0  0  0
   -0.1230   -1.1070    2.5460 C   0  0  0  0  0  0  0  0  0  0  0  0
   -0.7660   -1.5520    3.8620 C   0  0  0  0  0  0  0  0  0  0  0  0
   -2.0460   -0.7900    4.2020 C   0  0  0  0  0  0  0  0  0  0  0  0
   -2.6480   -1.2670    5.5170 C   0  0  0  0  0  0  0  0  0  0  0  0
   -3.8300   -0.5240    5.7780 O   0  0  0  0  0  0  0  0  0  0  0  0
    0.0000    0.0000    0.0000 H   0  0  0  0  0  0  0  0  0  0  0  0
    0.0000    0.0000    0.0000 H   0  0  0  0  0  0  0  0  0  0  0  0
    0.0000    0.0000    0.0000 H   0  0  0  0  0  0  0  0  0  0  0  0
    0.0000    0.0000    0.0000 H   0  0  0  0  0  0  0  0  0  0  0  0
    0.0000    0.0000    0.0000 H   0  0  0  0  0  0  0  0  0  0  0  0
    0.0000    0.0000    0.0000 H   0  0  0  0  0  0  0  0  0  0  0  0
    0.0000    0.0000    0.0000 H   0  0  0  0  0  0  0  0  0  0  0  0
    0.0000    0.0000    0.0000 H   0  0  0  0  0  0  0  0  0  0  0  0
    0.0000    0.0000    0.0000 H   0  0  0  0  0  0  0  0  0  0  0  0
    0.0000    0.0000    0.0000 H   0  0  0  0  0  0  0  0  0  0  0  0
    0.0000    0.0000    0.0000 H   0  0  0  0  0  0  0  0  0  0  0  0
    0.0000    0.0000    0.0000 H   0  0  0  0  0  0  0  0  0  0  0  0
    0.0000    0.0000    0.0000 H   0  0  0  0  0  0  0  0  0  0  0  0
    0.0000    0.0000    0.0000 H   0  0  0  0  0  0  0  0  0  0  0  0
  1  2  1  0
  2  3  1  0
  3  4  1  0
  4  5  1  0
  5  6  1  0
  6  7  1  0
  1  8  1  0
  1  9  1  0
  1 10  1  0
  2 11  1  0
  2 12  1  0
  3 13  1  0
  3 14  1  0
  4 15  1  0
  4 16  1  0
  5 17  1  0
  5 18  1  0
  6 19  1  0
  6 20  1  0
  7 21  1  0
M  END
>  <partial_charges>  (582) 
-0.0920000001788
-0.0798000022769
-0.0790000036359
-0.0786999985576
-0.0842999964952
0.132400006056
-0.601599991322
0.033100001514
0.033100001514
0.033100001514
0.0379999987781
0.0379999987781
0.041400000453
0.041400000453
0.0392999984324
0.0392999984324
0.0551000013947
0.0551000013947
0.0188999995589
0.0188999995589
0.398400008678

>  <partial_bond_orders>  (582) 
1.0
1.0
1.0
1.0
1.0
1.0
1.0
1.0
1.0
1.0
1.0
1.0
1.0
1.0
1.0
1.0
1.0
1.0
1.0
1.0

>  <atom_types>  (582) 
c3
c3
c3
c3
c3
c3
oh
hc
hc
hc
hc
hc
hc
hc
hc
hc
hc
hc
h1
h1
ho

>  <target>  (582) 
-4.4

>  <cal>  (582) 
-3.0

$$$$
mobley_2850833
     RDKit          3D

 15 15  0  0  0  0  0  0  0  0999 V2000
    1.8850   -1.0360   -0.1120 C   0  0  0  0  0  0  0  0  0  0  0  0
    2.9210   -1.6310    0.6080 C   0  0  0  0  0  0  0  0  0  0  0  0
    2.8780   -1.6520    2.0020 C   0  0  0  0  0  0  0  0  0  0  0  0
    1.8000   -1.0790    2.6760 C   0  0  0  0  0  0  0  0  0  0  0  0
    0.7640   -0.4840    1.9550 C   0  0  0  0  0  0  0  0  0  0  0  0
    0.8070   -0.4630    0.5610 C   0  0  0  0  0  0  0  0  0  0  0  0
   -0.3710    0.1200    2.6380 C   0  0  0  0  0  0  0  0  0  0  0  0
   -1.3080    0.6560    2.0410 O   0  0  0  0  0  0  0  0  0  0  0  0
    1.7760   -1.1090    4.0380 O   0  0  0  0  0  0  0  0  0  0  0  0
    0.0000    0.0000    0.0000 H   0  0  0  0  0  0  0  0  0  0  0  0
    0.0000    0.0000    0.0000 H   0  0  0  0  0  0  0  0  0  0  0  0
    0.0000    0.0000    0.0000 H   0  0  0  0  0  0  0  0  0  0  0  0
    0.0000    0.0000    0.0000 H   0  0  0  0  0  0  0  0  0  0  0  0
    0.0000    0.0000    0.0000 H   0  0  0  0  0  0  0  0  0  0  0  0
    0.0000    0.0000    0.0000 H   0  0  0  0  0  0  0  0  0  0  0  0
  1  6  2  0
  1  2  1  0
  2  3  2  0
  3  4  1  0
  4  5  2  0
  5  6  1  0
  5  7  1  0
  7  8  2  0
  4  9  1  0
  1 10  1  0
  2 11  1  0
  3 12  1  0
  6 13  1  0
  7 14  1  0
  9 15  1  0
M  END
>  <partial_charges>  (583) 
-0.180500000715
-0.0606000013649
-0.231999993324
0.170100003481
-0.224800005555
-0.040600001812
0.585399985313
-0.538900017738
-0.499199986458
0.1412999928
0.136500000954
0.138300001621
0.158800005913
0.0184000004083
0.427700012922

>  <partial_bond_orders>  (583) 
2.0
1.0
2.0
1.0
2.0
1.0
1.0
2.0
1.0
1.0
1.0
1.0
1.0
1.0
1.0

>  <atom_types>  (583) 
ca
ca
ca
ca
ca
ca
c
o
oh
ha
ha
ha
ha
h4
ho

>  <target>  (583) 
-4.68

>  <cal>  (583) 
-8.809

$$$$
mobley_7239499
     RDKit          3D

 22 24  0  0  0  0  0  0  0  0999 V2000
   -1.8580    0.7400    0.8000 C   0  0  0  0  0  0  0  0  0  0  0  0
   -1.0040   -0.2570    0.3260 C   0  0  0  0  0  0  0  0  0  0  0  0
   -1.4370   -1.5820    0.2690 C   0  0  0  0  0  0  0  0  0  0  0  0
   -2.7270   -1.9050    0.6890 C   0  0  0  0  0  0  0  0  0  0  0  0
   -3.5800   -0.9100    1.1630 C   0  0  0  0  0  0  0  0  0  0  0  0
   -3.1490    0.4150    1.2200 C   0  0  0  0  0  0  0  0  0  0  0  0
   -4.8560   -1.1830    1.5850 O   0  0  0  0  0  0  0  0  0  0  0  0
   -5.2390   -2.4980    1.5120 C   0  0  0  0  0  0  0  0  0  0  0  0
   -6.5290   -2.8210    1.9320 C   0  0  0  0  0  0  0  0  0  0  0  0
   -6.9620   -4.1460    1.8750 C   0  0  0  0  0  0  0  0  0  0  0  0
   -6.1070   -5.1430    1.4010 C   0  0  0  0  0  0  0  0  0  0  0  0
   -4.8170   -4.8180    0.9820 C   0  0  0  0  0  0  0  0  0  0  0  0
   -4.3860   -3.4940    1.0380 C   0  0  0  0  0  0  0  0  0  0  0  0
   -3.1090   -3.2200    0.6160 O   0  0  0  0  0  0  0  0  0  0  0  0
   -3.7900   -6.0790    0.4010 Cl  0  0  0  0  0  0  0  0  0  0  0  0
    0.0000    0.0000    0.0000 H   0  0  0  0  0  0  0  0  0  0  0  0
    0.0000    0.0000    0.0000 H   0  0  0  0  0  0  0  0  0  0  0  0
    0.0000    0.0000    0.0000 H   0  0  0  0  0  0  0  0  0  0  0  0
    0.0000    0.0000    0.0000 H   0  0  0  0  0  0  0  0  0  0  0  0
    0.0000    0.0000    0.0000 H   0  0  0  0  0  0  0  0  0  0  0  0
    0.0000    0.0000    0.0000 H   0  0  0  0  0  0  0  0  0  0  0  0
    0.0000    0.0000    0.0000 H   0  0  0  0  0  0  0  0  0  0  0  0
  1  6  2  0
  1  2  1  0
  2  3  2  0
  3  4  1  0
  4 14  1  0
  4  5  2  0
  5  6  1  0
  5  7  1  0
  7  8  1  0
  8 13  2  0
  8  9  1  0
  9 10  2  0
 10 11  1  0
 11 12  2  0
 12 13  1  0
 13 14  1  0
 12 15  1  0
  1 16  1  0
  2 17  1  0
  3 18  1  0
  6 19  1  0
  9 20  1  0
 10 21  1  0
 11 22  1  0
M  END
>  <partial_charges>  (584) 
-0.126699998975
-0.126399993896
-0.112700000405
0.061400000006
0.0604000017047
-0.114900000393
-0.222299993038
0.0715999975801
-0.117499999702
-0.119599997997
-0.126000002027
0.0249000005424
0.0696000009775
-0.211799994111
-0.0599999986589
0.140300005674
0.140300005674
0.158000007272
0.15530000627
0.15870000422
0.144700005651
0.152700006962

>  <partial_bond_orders>  (584) 
2.0
1.0
2.0
1.0
1.0
2.0
1.0
1.0
1.0
2.0
1.0
2.0
1.0
2.0
1.0
1.0
1.0
1.0
1.0
1.0
1.0
1.0
1.0
1.0

>  <atom_types>  (584) 
ca
ca
ca
ca
ca
ca
os
ca
ca
ca
ca
ca
ca
os
cl
ha
ha
ha
ha
ha
ha
ha

>  <target>  (584) 
-3.52

>  <cal>  (584) 
-4.473

$$$$
mobley_8207196
     RDKit          3D

 25 25  0  0  0  0  0  0  0  0999 V2000
    3.3390   -0.2460    2.5410 C   0  0  0  0  0  0  0  0  0  0  0  0
    3.4970   -0.5990    1.1010 C   0  0  0  0  0  0  0  0  0  0  0  0
    2.3150   -1.2360    0.5900 N   0  0  0  0  0  0  0  0  0  0  0  0
    2.1750   -1.6750   -0.7210 C   0  0  0  0  0  0  0  0  0  0  0  0
    3.2220   -1.4790   -1.5380 N   0  0  0  0  0  0  0  0  0  0  0  0
    3.0150   -1.9280   -2.7870 C   0  0  0  0  0  0  0  0  0  0  0  0
    1.9030   -2.5230   -3.2500 N   0  0  0  0  0  0  0  0  0  0  0  0
    0.9420   -2.6510   -2.3220 C   0  0  0  0  0  0  0  0  0  0  0  0
    1.0060   -2.2520   -1.0420 N   0  0  0  0  0  0  0  0  0  0  0  0
   -0.5110   -3.3990   -2.8210 Cl  0  0  0  0  0  0  0  0  0  0  0  0
    4.0720   -1.7570   -3.7060 N   0  0  0  0  0  0  0  0  0  0  0  0
    5.3130   -1.1410   -3.3550 C   0  0  0  0  0  0  0  0  0  0  0  0
    6.2470   -1.0930   -4.5190 C   0  0  0  0  0  0  0  0  0  0  0  0
    0.0000    0.0000    0.0000 H   0  0  0  0  0  0  0  0  0  0  0  0
    0.0000    0.0000    0.0000 H   0  0  0  0  0  0  0  0  0  0  0  0
    0.0000    0.0000    0.0000 H   0  0  0  0  0  0  0  0  0  0  0  0
    0.0000    0.0000    0.0000 H   0  0  0  0  0  0  0  0  0  0  0  0
    0.0000    0.0000    0.0000 H   0  0  0  0  0  0  0  0  0  0  0  0
    0.0000    0.0000    0.0000 H   0  0  0  0  0  0  0  0  0  0  0  0
    0.0000    0.0000    0.0000 H   0  0  0  0  0  0  0  0  0  0  0  0
    0.0000    0.0000    0.0000 H   0  0  0  0  0  0  0  0  0  0  0  0
    0.0000    0.0000    0.0000 H   0  0  0  0  0  0  0  0  0  0  0  0
    0.0000    0.0000    0.0000 H   0  0  0  0  0  0  0  0  0  0  0  0
    0.0000    0.0000    0.0000 H   0  0  0  0  0  0  0  0  0  0  0  0
    0.0000    0.0000    0.0000 H   0  0  0  0  0  0  0  0  0  0  0  0
  1  2  1  0
  2  3  1  0
  3  4  1  0
  4  9  2  0
  4  5  1  0
  5  6  2  0
  6  7  1  0
  7  8  2  0
  8  9  1  0
  8 10  1  0
  6 11  1  0
 11 12  1  0
 12 13  1  0
  1 14  1  0
  1 15  1  0
  1 16  1  0
  2 17  1  0
  2 18  1  0
  3 19  1  0
 11 20  1  0
 12 21  1  0
 12 22  1  0
 13 23  1  0
 13 24  1  0
 13 25  1  0
M  END
>  <partial_charges>  (585) 
-0.127599999309
0.211500003934
-0.830999970436
0.923600018024
-0.832400023937
0.923600018024
-0.80269998312
0.802600026131
-0.80269998312
-0.11590000242
-0.830999970436
0.211500003934
-0.127599999309
0.0467999987304
0.0467999987304
0.0467999987304
0.0604999996722
0.0604999996722
0.437700003386
0.437700003386
0.0604999996722
0.0604999996722
0.0467999987304
0.0467999987304
0.0467999987304

>  <partial_bond_orders>  (585) 
1.0
1.0
1.0
2.0
1.0
2.0
1.0
2.0
1.0
1.0
1.0
1.0
1.0
1.0
1.0
1.0
1.0
1.0
1.0
1.0
1.0
1.0
1.0
1.0
1.0

>  <atom_types>  (585) 
c3
c3
nh
ca
nb
ca
nb
ca
nb
cl
nh
c3
c3
hc
hc
hc
h1
h1
hn
hn
h1
h1
hc
hc
hc

>  <target>  (585) 
-10.22

>  <cal>  (585) 
-10.914

$$$$
mobley_8789864
     RDKit          3D

 21 20  0  0  0  0  0  0  0  0999 V2000
    0.7210    1.5450   -1.7660 C   0  0  0  0  0  0  0  0  0  0  0  0
    0.6060    1.3690   -0.3590 O   0  0  0  0  0  0  0  0  0  0  0  0
   -0.0600    0.1410    0.0220 C   0  0  0  0  0  0  0  0  0  0  0  0
   -0.0830    0.1390    1.5720 C   0  0  0  0  0  0  0  0  0  0  0  0
   -0.8060    1.2960    2.1290 C   0  0  0  0  0  0  0  0  0  0  0  0
   -1.3760    2.2060    2.5690 N   0  0  0  0  0  0  0  0  0  0  0  0
    0.6420   -1.0140   -0.4830 O   0  0  0  0  0  0  0  0  0  0  0  0
    1.9830   -1.1690   -0.0420 C   0  0  0  0  0  0  0  0  0  0  0  0
   -1.4160    0.1560   -0.4810 O   0  0  0  0  0  0  0  0  0  0  0  0
   -2.1930   -0.9950   -0.1800 C   0  0  0  0  0  0  0  0  0  0  0  0
    0.0000    0.0000    0.0000 H   0  0  0  0  0  0  0  0  0  0  0  0
    0.0000    0.0000    0.0000 H   0  0  0  0  0  0  0  0  0  0  0  0
    0.0000    0.0000    0.0000 H   0  0  0  0  0  0  0  0  0  0  0  0
    0.0000    0.0000    0.0000 H   0  0  0  0  0  0  0  0  0  0  0  0
    0.0000    0.0000    0.0000 H   0  0  0  0  0  0  0  0  0  0  0  0
    0.0000    0.0000    0.0000 H   0  0  0  0  0  0  0  0  0  0  0  0
    0.0000    0.0000    0.0000 H   0  0  0  0  0  0  0  0  0  0  0  0
    0.0000    0.0000    0.0000 H   0  0  0  0  0  0  0  0  0  0  0  0
    0.0000    0.0000    0.0000 H   0  0  0  0  0  0  0  0  0  0  0  0
    0.0000    0.0000    0.0000 H   0  0  0  0  0  0  0  0  0  0  0  0
    0.0000    0.0000    0.0000 H   0  0  0  0  0  0  0  0  0  0  0  0
  1  2  1  0
  2  3  1  0
  3  4  1  0
  4  5  1  0
  5  6  3  0
  3  7  1  0
  7  8  1  0
  3  9  1  0
  9 10  1  0
  1 11  1  0
  1 12  1  0
  1 13  1  0
  4 14  1  0
  4 15  1  0
  8 16  1  0
  8 17  1  0
  8 18  1  0
 10 19  1  0
 10 20  1  0
 10 21  1  0
M  END
>  <partial_charges>  (586) 
0.128800004721
-0.440400004387
0.531199991703
-0.0397999994457
0.222299993038
-0.354999989271
-0.440400004387
0.128800004721
-0.440400004387
0.128800004721
0.0434999987483
0.0434999987483
0.0434999987483
0.0922000035644
0.0922000035644
0.0434999987483
0.0434999987483
0.0434999987483
0.0434999987483
0.0434999987483
0.0434999987483

>  <partial_bond_orders>  (586) 
1.0
1.0
1.0
1.0
3.0
1.0
1.0
1.0
1.0
1.0
1.0
1.0
1.0
1.0
1.0
1.0
1.0
1.0
1.0
1.0

>  <atom_types>  (586) 
c3
os
c3
c3
c1
n1
os
c3
os
c3
h1
h1
h1
hc
hc
h1
h1
h1
h1
h1
h1

>  <target>  (586) 
-6.4

>  <cal>  (586) 
-5.859

$$$$
mobley_5816127
     RDKit          3D

 13 12  0  0  0  0  0  0  0  0999 V2000
    0.3040    0.8200    2.4300 C   0  0  0  0  0  0  0  0  0  0  0  0
   -0.8530    0.2360    1.8470 O   0  0  0  0  0  0  0  0  0  0  0  0
   -0.8940    0.4510    0.4420 C   0  0  0  0  0  0  0  0  0  0  0  0
   -2.1460   -0.1940   -0.1210 C   0  0  0  0  0  0  0  0  0  0  0  0
   -2.1150   -1.5890    0.1550 O   0  0  0  0  0  0  0  0  0  0  0  0
    0.0000    0.0000    0.0000 H   0  0  0  0  0  0  0  0  0  0  0  0
    0.0000    0.0000    0.0000 H   0  0  0  0  0  0  0  0  0  0  0  0
    0.0000    0.0000    0.0000 H   0  0  0  0  0  0  0  0  0  0  0  0
    0.0000    0.0000    0.0000 H   0  0  0  0  0  0  0  0  0  0  0  0
    0.0000    0.0000    0.0000 H   0  0  0  0  0  0  0  0  0  0  0  0
    0.0000    0.0000    0.0000 H   0  0  0  0  0  0  0  0  0  0  0  0
    0.0000    0.0000    0.0000 H   0  0  0  0  0  0  0  0  0  0  0  0
    0.0000    0.0000    0.0000 H   0  0  0  0  0  0  0  0  0  0  0  0
  1  2  1  0
  2  3  1  0
  3  4  1  0
  4  5  1  0
  1  6  1  0
  1  7  1  0
  1  8  1  0
  3  9  1  0
  3 10  1  0
  4 11  1  0
  4 12  1  0
  5 13  1  0
M  END
>  <partial_charges>  (587) 
0.114799998701
-0.417199999094
0.115800000727
0.130999997258
-0.595399975777
0.0324000008404
0.0324000008404
0.0324000008404
0.0381000004709
0.0381000004709
0.0373000018299
0.0373000018299
0.402799993753

>  <partial_bond_orders>  (587) 
1.0
1.0
1.0
1.0
1.0
1.0
1.0
1.0
1.0
1.0
1.0
1.0

>  <atom_types>  (587) 
c3
os
c3
c3
oh
h1
h1
h1
h1
h1
h1
h1
ho

>  <target>  (587) 
-6.619999999999999

>  <cal>  (587) 
-4.686

$$$$
mobley_7010316
     RDKit          3D

 19 19  0  0  0  0  0  0  0  0999 V2000
    0.8600   -0.5760   -0.3650 C   0  0  0  0  0  0  0  0  0  0  0  0
    1.9980   -0.4820    0.6480 C   0  0  0  0  0  0  0  0  0  0  0  0
    2.5550    0.9350    0.7370 C   0  0  0  0  0  0  0  0  0  0  0  0
    2.9750    1.4610   -0.6340 C   0  0  0  0  0  0  0  0  0  0  0  0
    1.8340    1.3680   -1.6460 C   0  0  0  0  0  0  0  0  0  0  0  0
    1.2770   -0.0490   -1.7360 C   0  0  0  0  0  0  0  0  0  0  0  0
    3.4010    2.8140   -0.5170 O   0  0  0  0  0  0  0  0  0  0  0  0
    0.0000    0.0000    0.0000 H   0  0  0  0  0  0  0  0  0  0  0  0
    0.0000    0.0000    0.0000 H   0  0  0  0  0  0  0  0  0  0  0  0
    0.0000    0.0000    0.0000 H   0  0  0  0  0  0  0  0  0  0  0  0
    0.0000    0.0000    0.0000 H   0  0  0  0  0  0  0  0  0  0  0  0
    0.0000    0.0000    0.0000 H   0  0  0  0  0  0  0  0  0  0  0  0
    0.0000    0.0000    0.0000 H   0  0  0  0  0  0  0  0  0  0  0  0
    0.0000    0.0000    0.0000 H   0  0  0  0  0  0  0  0  0  0  0  0
    0.0000    0.0000    0.0000 H   0  0  0  0  0  0  0  0  0  0  0  0
    0.0000    0.0000    0.0000 H   0  0  0  0  0  0  0  0  0  0  0  0
    0.0000    0.0000    0.0000 H   0  0  0  0  0  0  0  0  0  0  0  0
    0.0000    0.0000    0.0000 H   0  0  0  0  0  0  0  0  0  0  0  0
    0.0000    0.0000    0.0000 H   0  0  0  0  0  0  0  0  0  0  0  0
  1  6  1  0
  1  2  1  0
  2  3  1  0
  3  4  1  0
  4  5  1  0
  5  6  1  0
  4  7  1  0
  1  8  1  0
  1  9  1  0
  2 10  1  0
  2 11  1  0
  3 12  1  0
  3 13  1  0
  4 14  1  0
  5 15  1  0
  5 16  1  0
  6 17  1  0
  6 18  1  0
  7 19  1  0
M  END
>  <partial_charges>  (588) 
-0.0784000009298
-0.0744000002742
-0.0930000022054
0.141399994493
-0.0930000022054
-0.0744000002742
-0.601000010967
0.0412999987602
0.0412999987602
0.040600001812
0.040600001812
0.0500999987125
0.0500999987125
0.0299999993294
0.0500999987125
0.0500999987125
0.040600001812
0.040600001812
0.397199988365

>  <partial_bond_orders>  (588) 
1.0
1.0
1.0
1.0
1.0
1.0
1.0
1.0
1.0
1.0
1.0
1.0
1.0
1.0
1.0
1.0
1.0
1.0
1.0

>  <atom_types>  (588) 
c3
c3
c3
c3
c3
c3
oh
hc
hc
hc
hc
hc
hc
h1
hc
hc
hc
hc
ho

>  <target>  (588) 
-5.46

>  <cal>  (588) 
-4.178

$$$$
mobley_2972906
     RDKit          3D

  9  9  0  0  0  0  0  0  0  0999 V2000
   -0.4680   -0.0880   -0.9720 C   0  0  0  0  0  0  0  0  0  0  0  0
   -0.2530    0.8090   -2.0580 C   0  0  0  0  0  0  0  0  0  0  0  0
   -0.9780    0.4540   -3.1740 C   0  0  0  0  0  0  0  0  0  0  0  0
   -1.9150   -0.9560   -2.9100 S   0  0  0  0  0  0  0  0  0  0  0  0
   -1.3500   -1.0950   -1.2990 C   0  0  0  0  0  0  0  0  0  0  0  0
    0.0000    0.0000    0.0000 H   0  0  0  0  0  0  0  0  0  0  0  0
    0.0000    0.0000    0.0000 H   0  0  0  0  0  0  0  0  0  0  0  0
    0.0000    0.0000    0.0000 H   0  0  0  0  0  0  0  0  0  0  0  0
    0.0000    0.0000    0.0000 H   0  0  0  0  0  0  0  0  0  0  0  0
  1  5  2  0
  1  2  1  0
  2  3  2  0
  3  4  1  0
  4  5  1  0
  1  6  1  0
  2  7  1  0
  3  8  1  0
  5  9  1  0
M  END
>  <partial_charges>  (589) 
-0.156900003552
-0.15680000186
-0.16969999671
0.0093999998644
-0.16969999671
0.152300000191
0.152300000191
0.169499993324
0.169499993324

>  <partial_bond_orders>  (589) 
2.0
1.0
2.0
1.0
1.0
1.0
1.0
1.0
1.0

>  <atom_types>  (589) 
cc
cc
cd
ss
cd
ha
ha
h4
h4

>  <target>  (589) 
-1.4

>  <cal>  (589) 
-0.359

$$$$
mobley_1075836
     RDKit          3D

 14 13  0  0  0  0  0  0  0  0999 V2000
   -0.8720    0.5460    0.3730 C   0  0  0  0  0  0  0  0  0  0  0  0
   -0.8820    0.5510    1.8920 C   0  0  0  0  0  0  0  0  0  0  0  0
   -2.0710    1.2980    2.4500 C   0  0  0  0  0  0  0  0  0  0  0  0
   -2.9390    1.8430    1.7810 O   0  0  0  0  0  0  0  0  0  0  0  0
   -2.0150    1.2620    3.8140 O   0  0  0  0  0  0  0  0  0  0  0  0
   -3.0820    1.9330    4.4930 C   0  0  0  0  0  0  0  0  0  0  0  0
    0.0000    0.0000    0.0000 H   0  0  0  0  0  0  0  0  0  0  0  0
    0.0000    0.0000    0.0000 H   0  0  0  0  0  0  0  0  0  0  0  0
    0.0000    0.0000    0.0000 H   0  0  0  0  0  0  0  0  0  0  0  0
    0.0000    0.0000    0.0000 H   0  0  0  0  0  0  0  0  0  0  0  0
    0.0000    0.0000    0.0000 H   0  0  0  0  0  0  0  0  0  0  0  0
    0.0000    0.0000    0.0000 H   0  0  0  0  0  0  0  0  0  0  0  0
    0.0000    0.0000    0.0000 H   0  0  0  0  0  0  0  0  0  0  0  0
    0.0000    0.0000    0.0000 H   0  0  0  0  0  0  0  0  0  0  0  0
  1  2  1  0
  2  3  1  0
  3  4  2  0
  3  5  1  0
  5  6  1  0
  1  7  1  0
  1  8  1  0
  1  9  1  0
  2 10  1  0
  2 11  1  0
  6 12  1  0
  6 13  1  0
  6 14  1  0
M  END
>  <partial_charges>  (590) 
-0.0925000011921
-0.129700005054
0.629599988461
-0.536300003529
-0.446200013161
0.125400006771
0.0478999987245
0.0478999987245
0.0478999987245
0.0777999982238
0.0777999982238
0.0500999987125
0.0500999987125
0.0500999987125

>  <partial_bond_orders>  (590) 
1.0
1.0
2.0
1.0
1.0
1.0
1.0
1.0
1.0
1.0
1.0
1.0
1.0

>  <atom_types>  (590) 
c3
c3
c
o
os
c3
hc
hc
hc
hc
hc
h1
h1
h1

>  <target>  (590) 
-2.93

>  <cal>  (590) 
-3.652

$$$$
mobley_951560
     RDKit          3D

 16 16  0  0  0  0  0  0  0  0999 V2000
    1.0070   -0.9010    0.4540 C   0  0  0  0  0  0  0  0  0  0  0  0
    1.0950    0.6080    0.6810 C   0  0  0  0  0  0  0  0  0  0  0  0
   -0.2350    1.2120    0.7480 N   0  0  0  0  0  0  0  0  0  0  0  0
   -1.0070    0.9010   -0.4540 C   0  0  0  0  0  0  0  0  0  0  0  0
   -1.0950   -0.6080   -0.6800 C   0  0  0  0  0  0  0  0  0  0  0  0
    0.2350   -1.2120   -0.7480 N   0  0  0  0  0  0  0  0  0  0  0  0
    0.0000    0.0000    0.0000 H   0  0  0  0  0  0  0  0  0  0  0  0
    0.0000    0.0000    0.0000 H   0  0  0  0  0  0  0  0  0  0  0  0
    0.0000    0.0000    0.0000 H   0  0  0  0  0  0  0  0  0  0  0  0
    0.0000    0.0000    0.0000 H   0  0  0  0  0  0  0  0  0  0  0  0
    0.0000    0.0000    0.0000 H   0  0  0  0  0  0  0  0  0  0  0  0
    0.0000    0.0000    0.0000 H   0  0  0  0  0  0  0  0  0  0  0  0
    0.0000    0.0000    0.0000 H   0  0  0  0  0  0  0  0  0  0  0  0
    0.0000    0.0000    0.0000 H   0  0  0  0  0  0  0  0  0  0  0  0
    0.0000    0.0000    0.0000 H   0  0  0  0  0  0  0  0  0  0  0  0
    0.0000    0.0000    0.0000 H   0  0  0  0  0  0  0  0  0  0  0  0
  1  6  1  0
  1  2  1  0
  2  3  1  0
  3  4  1  0
  4  5  1  0
  5  6  1  0
  1  7  1  0
  1  8  1  0
  2  9  1  0
  2 10  1  0
  3 11  1  0
  4 12  1  0
  4 13  1  0
  5 14  1  0
  5 15  1  0
  6 16  1  0
M  END
>  <partial_charges>  (591) 
0.157900005579
0.157900005579
-0.815299987793
0.157900005579
0.157900005579
-0.815299987793
0.034699998796
0.034699998796
0.034699998796
0.034699998796
0.360799998045
0.034699998796
0.034699998796
0.034699998796
0.034699998796
0.360799998045

>  <partial_bond_orders>  (591) 
1.0
1.0
1.0
1.0
1.0
1.0
1.0
1.0
1.0
1.0
1.0
1.0
1.0
1.0
1.0
1.0

>  <atom_types>  (591) 
c3
c3
n3
c3
c3
n3
h1
h1
h1
h1
hn
h1
h1
h1
h1
hn

>  <target>  (591) 
-7.4

>  <cal>  (591) 
-8.481

$$$$
mobley_1987439
     RDKit          3D

 21 21  0  0  0  0  0  0  0  0999 V2000
    1.9310   -1.0140   -1.6030 C   0  0  0  0  0  0  0  0  0  0  0  0
    1.8850   -1.0360   -0.1120 C   0  0  0  0  0  0  0  0  0  0  0  0
    2.9210   -1.6310    0.6080 C   0  0  0  0  0  0  0  0  0  0  0  0
    2.8780   -1.6520    2.0020 C   0  0  0  0  0  0  0  0  0  0  0  0
    1.8000   -1.0790    2.6760 C   0  0  0  0  0  0  0  0  0  0  0  0
    0.7640   -0.4840    1.9550 C   0  0  0  0  0  0  0  0  0  0  0  0
    0.8070   -0.4630    0.5610 C   0  0  0  0  0  0  0  0  0  0  0  0
   -0.3890    0.1290    2.6750 C   0  0  0  0  0  0  0  0  0  0  0  0
    3.9860   -2.2880    2.7730 C   0  0  0  0  0  0  0  0  0  0  0  0
    0.0000    0.0000    0.0000 H   0  0  0  0  0  0  0  0  0  0  0  0
    0.0000    0.0000    0.0000 H   0  0  0  0  0  0  0  0  0  0  0  0
    0.0000    0.0000    0.0000 H   0  0  0  0  0  0  0  0  0  0  0  0
    0.0000    0.0000    0.0000 H   0  0  0  0  0  0  0  0  0  0  0  0
    0.0000    0.0000    0.0000 H   0  0  0  0  0  0  0  0  0  0  0  0
    0.0000    0.0000    0.0000 H   0  0  0  0  0  0  0  0  0  0  0  0
    0.0000    0.0000    0.0000 H   0  0  0  0  0  0  0  0  0  0  0  0
    0.0000    0.0000    0.0000 H   0  0  0  0  0  0  0  0  0  0  0  0
    0.0000    0.0000    0.0000 H   0  0  0  0  0  0  0  0  0  0  0  0
    0.0000    0.0000    0.0000 H   0  0  0  0  0  0  0  0  0  0  0  0
    0.0000    0.0000    0.0000 H   0  0  0  0  0  0  0  0  0  0  0  0
    0.0000    0.0000    0.0000 H   0  0  0  0  0  0  0  0  0  0  0  0
  1  2  1  0
  2  7  2  0
  2  3  1  0
  3  4  2  0
  4  5  1  0
  5  6  2  0
  6  7  1  0
  6  8  1  0
  4  9  1  0
  1 10  1  0
  1 11  1  0
  1 12  1  0
  3 13  1  0
  5 14  1  0
  7 15  1  0
  8 16  1  0
  8 17  1  0
  8 18  1  0
  9 19  1  0
  9 20  1  0
  9 21  1  0
M  END
>  <partial_charges>  (592) 
-0.0533000007272
-0.0710000023246
-0.135299995542
-0.0710000023246
-0.135299995542
-0.0710000023246
-0.135299995542
-0.0531000010669
-0.0531000010669
0.043299999088
0.043299999088
0.043299999088
0.129700005054
0.129700005054
0.129700005054
0.043299999088
0.043299999088
0.043299999088
0.043299999088
0.043299999088
0.043299999088

>  <partial_bond_orders>  (592) 
1.0
2.0
1.0
2.0
1.0
2.0
1.0
1.0
1.0
1.0
1.0
1.0
1.0
1.0
1.0
1.0
1.0
1.0
1.0
1.0
1.0

>  <atom_types>  (592) 
c3
ca
ca
ca
ca
ca
ca
c3
c3
hc
hc
hc
ha
ha
ha
hc
hc
hc
hc
hc
hc

>  <target>  (592) 
-0.9

>  <cal>  (592) 
-0.553

$$$$
mobley_627267
     RDKit          3D

 14 13  0  0  0  0  0  0  0  0999 V2000
    0.8030    1.1800   -0.4360 C   0  0  0  0  0  0  0  0  0  0  0  0
   -0.2690    0.1020   -0.2600 C   0  0  0  0  0  0  0  0  0  0  0  0
    0.3200   -1.2650   -0.6190 C   0  0  0  0  0  0  0  0  0  0  0  0
   -0.8020    0.1380    1.1720 C   0  0  0  0  0  0  0  0  0  0  0  0
   -1.5930    1.8710    1.5880 Br  0  0  0  0  0  0  0  0  0  0  0  0
    0.0000    0.0000    0.0000 H   0  0  0  0  0  0  0  0  0  0  0  0
    0.0000    0.0000    0.0000 H   0  0  0  0  0  0  0  0  0  0  0  0
    0.0000    0.0000    0.0000 H   0  0  0  0  0  0  0  0  0  0  0  0
    0.0000    0.0000    0.0000 H   0  0  0  0  0  0  0  0  0  0  0  0
    0.0000    0.0000    0.0000 H   0  0  0  0  0  0  0  0  0  0  0  0
    0.0000    0.0000    0.0000 H   0  0  0  0  0  0  0  0  0  0  0  0
    0.0000    0.0000    0.0000 H   0  0  0  0  0  0  0  0  0  0  0  0
    0.0000    0.0000    0.0000 H   0  0  0  0  0  0  0  0  0  0  0  0
    0.0000    0.0000    0.0000 H   0  0  0  0  0  0  0  0  0  0  0  0
  1  2  1  0
  2  3  1  0
  2  4  1  0
  4  5  1  0
  1  6  1  0
  1  7  1  0
  1  8  1  0
  2  9  1  0
  3 10  1  0
  3 11  1  0
  3 12  1  0
  4 13  1  0
  4 14  1  0
M  END
>  <partial_charges>  (593) 
-0.0948999971151
-0.0658999979496
-0.0948999971151
-0.00650000013411
-0.180199995637
0.0395999997854
0.0395999997854
0.0395999997854
0.0619999989867
0.0395999997854
0.0395999997854
0.0395999997854
0.0715999975801
0.0715999975801

>  <partial_bond_orders>  (593) 
1.0
1.0
1.0
1.0
1.0
1.0
1.0
1.0
1.0
1.0
1.0
1.0
1.0

>  <atom_types>  (593) 
c3
c3
c3
c3
br
hc
hc
hc
hc
hc
hc
hc
h1
h1

>  <target>  (593) 
-0.03

>  <cal>  (593) 
0.756

$$$$
mobley_1944394
     RDKit          3D

 40 41  0  0  0  0  0  0  0  0999 V2000
   -3.0310   -4.3990    0.7980 C   0  0  0  0  0  0  0  0  0  0  0  0
   -2.9520   -3.6840    2.0710 N   0  0  0  0  0  0  0  0  0  0  0  0
   -4.0460   -2.7200    2.1850 C   0  0  0  0  0  0  0  0  0  0  0  0
   -1.6610   -3.0090    2.1990 C   0  0  0  0  0  0  0  0  0  0  0  0
   -0.5880   -4.0000    2.6330 C   0  0  0  0  0  0  0  0  0  0  0  0
    0.6560   -3.3210    2.7500 O   0  0  0  0  0  0  0  0  0  0  0  0
    1.6950   -4.2020    3.1540 C   0  0  0  0  0  0  0  0  0  0  0  0
    2.2020   -5.0020    1.9680 C   0  0  0  0  0  0  0  0  0  0  0  0
    2.7130   -6.2860    2.1600 C   0  0  0  0  0  0  0  0  0  0  0  0
    3.1790   -7.0210    1.0700 C   0  0  0  0  0  0  0  0  0  0  0  0
    3.1360   -6.4720   -0.2120 C   0  0  0  0  0  0  0  0  0  0  0  0
    2.6250   -5.1880   -0.4030 C   0  0  0  0  0  0  0  0  0  0  0  0
    2.1590   -4.4530    0.6870 C   0  0  0  0  0  0  0  0  0  0  0  0
    2.8110   -3.4740    3.8860 C   0  0  0  0  0  0  0  0  0  0  0  0
    3.5530   -4.1370    4.8630 C   0  0  0  0  0  0  0  0  0  0  0  0
    4.5770   -3.4690    5.5350 C   0  0  0  0  0  0  0  0  0  0  0  0
    4.8580   -2.1380    5.2280 C   0  0  0  0  0  0  0  0  0  0  0  0
    4.1160   -1.4740    4.2510 C   0  0  0  0  0  0  0  0  0  0  0  0
    3.0920   -2.1430    3.5790 C   0  0  0  0  0  0  0  0  0  0  0  0
    0.0000    0.0000    0.0000 H   0  0  0  0  0  0  0  0  0  0  0  0
    0.0000    0.0000    0.0000 H   0  0  0  0  0  0  0  0  0  0  0  0
    0.0000    0.0000    0.0000 H   0  0  0  0  0  0  0  0  0  0  0  0
    0.0000    0.0000    0.0000 H   0  0  0  0  0  0  0  0  0  0  0  0
    0.0000    0.0000    0.0000 H   0  0  0  0  0  0  0  0  0  0  0  0
    0.0000    0.0000    0.0000 H   0  0  0  0  0  0  0  0  0  0  0  0
    0.0000    0.0000    0.0000 H   0  0  0  0  0  0  0  0  0  0  0  0
    0.0000    0.0000    0.0000 H   0  0  0  0  0  0  0  0  0  0  0  0
    0.0000    0.0000    0.0000 H   0  0  0  0  0  0  0  0  0  0  0  0
    0.0000    0.0000    0.0000 H   0  0  0  0  0  0  0  0  0  0  0  0
    0.0000    0.0000    0.0000 H   0  0  0  0  0  0  0  0  0  0  0  0
    0.0000    0.0000    0.0000 H   0  0  0  0  0  0  0  0  0  0  0  0
    0.0000    0.0000    0.0000 H   0  0  0  0  0  0  0  0  0  0  0  0
    0.0000    0.0000    0.0000 H   0  0  0  0  0  0  0  0  0  0  0  0
    0.0000    0.0000    0.0000 H   0  0  0  0  0  0  0  0  0  0  0  0
    0.0000    0.0000    0.0000 H   0  0  0  0  0  0  0  0  0  0  0  0
    0.0000    0.0000    0.0000 H   0  0  0  0  0  0  0  0  0  0  0  0
    0.0000    0.0000    0.0000 H   0  0  0  0  0  0  0  0  0  0  0  0
    0.0000    0.0000    0.0000 H   0  0  0  0  0  0  0  0  0  0  0  0
    0.0000    0.0000    0.0000 H   0  0  0  0  0  0  0  0  0  0  0  0
    0.0000    0.0000    0.0000 H   0  0  0  0  0  0  0  0  0  0  0  0
  1  2  1  0
  2  3  1  0
  2  4  1  0
  4  5  1  0
  5  6  1  0
  6  7  1  0
  7  8  1  0
  8 13  1  0
  8  9  2  0
  9 10  1  0
 10 11  2  0
 11 12  1  0
 12 13  2  0
  7 14  1  0
 14 19  1  0
 14 15  2  0
 15 16  1  0
 16 17  2  0
 17 18  1  0
 18 19  2  0
  1 20  1  0
  1 21  1  0
  1 22  1  0
  3 23  1  0
  3 24  1  0
  3 25  1  0
  4 26  1  0
  4 27  1  0
  5 28  1  0
  5 29  1  0
  7 30  1  0
  9 31  1  0
 10 32  1  0
 11 33  1  0
 12 34  1  0
 13 35  1  0
 15 36  1  0
 16 37  1  0
 17 38  1  0
 18 39  1  0
 19 40  1  0
M  END
>  <partial_charges>  (594) 
0.138099998236
-0.704400002956
0.138099998236
0.147499993443
0.123800002038
-0.418399989605
0.234200000763
-0.0947000011802
-0.112199999392
-0.132699996233
-0.126100003719
-0.132699996233
-0.112199999392
-0.0947000011802
-0.112199999392
-0.132699996233
-0.126100003719
-0.132699996233
-0.112199999392
0.0344000011683
0.0344000011683
0.0344000011683
0.0344000011683
0.0344000011683
0.0344000011683
0.0463000014424
0.0463000014424
0.0399000011384
0.0399000011384
0.0502999983728
0.136800006032
0.131099998951
0.130899995565
0.131099998951
0.136800006032
0.136800006032
0.131099998951
0.130899995565
0.131099998951
0.136800006032

>  <partial_bond_orders>  (594) 
1.0
1.0
1.0
1.0
1.0
1.0
1.0
2.0
1.0
2.0
1.0
2.0
1.0
1.0
2.0
1.0
2.0
1.0
2.0
1.0
1.0
1.0
1.0
1.0
1.0
1.0
1.0
1.0
1.0
1.0
1.0
1.0
1.0
1.0
1.0
1.0
1.0
1.0
1.0
1.0
1.0

>  <atom_types>  (594) 
c3
n3
c3
c3
c3
os
c3
ca
ca
ca
ca
ca
ca
ca
ca
ca
ca
ca
ca
h1
h1
h1
h1
h1
h1
h1
h1
h1
h1
h1
ha
ha
ha
ha
ha
ha
ha
ha
ha
ha

>  <target>  (594) 
-9.34

>  <cal>  (594) 
-7.873

$$$$
mobley_1875719
     RDKit          3D

 16 15  0  0  0  0  0  0  0  0999 V2000
    0.1180    0.0610   -1.0830 C   0  0  0  0  0  0  0  0  0  0  0  0
   -0.9880    0.8890   -1.7120 C   0  0  0  0  0  0  0  0  0  0  0  0
   -2.3710    0.3190   -1.4480 C   0  0  0  0  0  0  0  0  0  0  0  0
   -2.5440   -0.7070   -0.7920 O   0  0  0  0  0  0  0  0  0  0  0  0
   -3.5270    1.1010   -2.0500 C   0  0  0  0  0  0  0  0  0  0  0  0
   -4.8780    0.4770   -1.7490 C   0  0  0  0  0  0  0  0  0  0  0  0
    0.0000    0.0000    0.0000 H   0  0  0  0  0  0  0  0  0  0  0  0
    0.0000    0.0000    0.0000 H   0  0  0  0  0  0  0  0  0  0  0  0
    0.0000    0.0000    0.0000 H   0  0  0  0  0  0  0  0  0  0  0  0
    0.0000    0.0000    0.0000 H   0  0  0  0  0  0  0  0  0  0  0  0
    0.0000    0.0000    0.0000 H   0  0  0  0  0  0  0  0  0  0  0  0
    0.0000    0.0000    0.0000 H   0  0  0  0  0  0  0  0  0  0  0  0
    0.0000    0.0000    0.0000 H   0  0  0  0  0  0  0  0  0  0  0  0
    0.0000    0.0000    0.0000 H   0  0  0  0  0  0  0  0  0  0  0  0
    0.0000    0.0000    0.0000 H   0  0  0  0  0  0  0  0  0  0  0  0
    0.0000    0.0000    0.0000 H   0  0  0  0  0  0  0  0  0  0  0  0
  1  2  1  0
  2  3  1  0
  3  4  2  0
  3  5  1  0
  5  6  1  0
  1  7  1  0
  1  8  1  0
  1  9  1  0
  2 10  1  0
  2 11  1  0
  5 12  1  0
  5 13  1  0
  6 14  1  0
  6 15  1  0
  6 16  1  0
M  END
>  <partial_charges>  (595) 
-0.0872000008821
-0.180800005794
0.559000015259
-0.52840000391
-0.180800005794
-0.0872000008821
0.0430999994278
0.0430999994278
0.0430999994278
0.061700001359
0.061700001359
0.061700001359
0.061700001359
0.0430999994278
0.0430999994278
0.0430999994278

>  <partial_bond_orders>  (595) 
1.0
1.0
2.0
1.0
1.0
1.0
1.0
1.0
1.0
1.0
1.0
1.0
1.0
1.0
1.0

>  <atom_types>  (595) 
c3
c3
c
o
c3
c3
hc
hc
hc
hc
hc
hc
hc
hc
hc
hc

>  <target>  (595) 
-3.41

>  <cal>  (595) 
-3.05

$$$$
mobley_8861672
     RDKit          3D

 17 17  0  0  0  0  0  0  0  0999 V2000
    2.3460    0.8980    1.0440 C   0  0  0  0  0  0  0  0  0  0  0  0
    1.3880   -0.0680    1.6520 C   0  0  0  0  0  0  0  0  0  0  0  0
    0.2270   -0.4200    0.9730 C   0  0  0  0  0  0  0  0  0  0  0  0
   -0.6320   -1.3220    1.5800 C   0  0  0  0  0  0  0  0  0  0  0  0
   -0.4090   -1.8820    2.7910 N   0  0  0  0  0  0  0  0  0  0  0  0
    0.7300   -1.5160    3.4210 C   0  0  0  0  0  0  0  0  0  0  0  0
    1.6520   -0.6230    2.9000 C   0  0  0  0  0  0  0  0  0  0  0  0
    0.9810   -2.1310    4.7570 C   0  0  0  0  0  0  0  0  0  0  0  0
    0.0000    0.0000    0.0000 H   0  0  0  0  0  0  0  0  0  0  0  0
    0.0000    0.0000    0.0000 H   0  0  0  0  0  0  0  0  0  0  0  0
    0.0000    0.0000    0.0000 H   0  0  0  0  0  0  0  0  0  0  0  0
    0.0000    0.0000    0.0000 H   0  0  0  0  0  0  0  0  0  0  0  0
    0.0000    0.0000    0.0000 H   0  0  0  0  0  0  0  0  0  0  0  0
    0.0000    0.0000    0.0000 H   0  0  0  0  0  0  0  0  0  0  0  0
    0.0000    0.0000    0.0000 H   0  0  0  0  0  0  0  0  0  0  0  0
    0.0000    0.0000    0.0000 H   0  0  0  0  0  0  0  0  0  0  0  0
    0.0000    0.0000    0.0000 H   0  0  0  0  0  0  0  0  0  0  0  0
  1  2  1  0
  2  7  2  0
  2  3  1  0
  3  4  2  0
  4  5  1  0
  5  6  2  0
  6  7  1  0
  6  8  1  0
  1  9  1  0
  1 10  1  0
  1 11  1  0
  3 12  1  0
  4 13  1  0
  7 14  1  0
  8 15  1  0
  8 16  1  0
  8 17  1  0
M  END
>  <partial_charges>  (596) 
-0.0619999989867
-0.0348999984562
-0.256000012159
0.402999997139
-0.673399984837
0.415199995041
-0.251599997282
-0.149900004268
0.0491000004113
0.0491000004113
0.0491000004113
0.142399996519
0.0197999998927
0.141200006008
0.0529000014067
0.0529000014067
0.0529000014067

>  <partial_bond_orders>  (596) 
1.0
2.0
1.0
2.0
1.0
2.0
1.0
1.0
1.0
1.0
1.0
1.0
1.0
1.0
1.0
1.0
1.0

>  <atom_types>  (596) 
c3
ca
ca
ca
nb
ca
ca
c3
hc
hc
hc
ha
h4
ha
hc
hc
hc

>  <target>  (596) 
-4.86

>  <cal>  (596) 
-3.282

$$$$
mobley_7860938
     RDKit          3D

 28 27  0  0  0  0  0  0  0  0999 V2000
   -6.1940    2.7180    2.8470 C   0  0  0  0  0  0  0  0  0  0  0  0
   -4.8430    2.7600    2.1510 C   0  0  0  0  0  0  0  0  0  0  0  0
   -3.7320    3.1840    3.1150 C   0  0  0  0  0  0  0  0  0  0  0  0
   -2.3630    3.2360    2.4450 C   0  0  0  0  0  0  0  0  0  0  0  0
   -1.3230    3.6340    3.3520 N   0  0  0  0  0  0  0  0  0  0  0  0
   -0.0170    3.6780    2.6920 C   0  0  0  0  0  0  0  0  0  0  0  0
    1.0760    4.0990    3.6530 C   0  0  0  0  0  0  0  0  0  0  0  0
    2.4580    4.1550    2.9970 C   0  0  0  0  0  0  0  0  0  0  0  0
    3.5270    4.5810    3.9910 C   0  0  0  0  0  0  0  0  0  0  0  0
    0.0000    0.0000    0.0000 H   0  0  0  0  0  0  0  0  0  0  0  0
    0.0000    0.0000    0.0000 H   0  0  0  0  0  0  0  0  0  0  0  0
    0.0000    0.0000    0.0000 H   0  0  0  0  0  0  0  0  0  0  0  0
    0.0000    0.0000    0.0000 H   0  0  0  0  0  0  0  0  0  0  0  0
    0.0000    0.0000    0.0000 H   0  0  0  0  0  0  0  0  0  0  0  0
    0.0000    0.0000    0.0000 H   0  0  0  0  0  0  0  0  0  0  0  0
    0.0000    0.0000    0.0000 H   0  0  0  0  0  0  0  0  0  0  0  0
    0.0000    0.0000    0.0000 H   0  0  0  0  0  0  0  0  0  0  0  0
    0.0000    0.0000    0.0000 H   0  0  0  0  0  0  0  0  0  0  0  0
    0.0000    0.0000    0.0000 H   0  0  0  0  0  0  0  0  0  0  0  0
    0.0000    0.0000    0.0000 H   0  0  0  0  0  0  0  0  0  0  0  0
    0.0000    0.0000    0.0000 H   0  0  0  0  0  0  0  0  0  0  0  0
    0.0000    0.0000    0.0000 H   0  0  0  0  0  0  0  0  0  0  0  0
    0.0000    0.0000    0.0000 H   0  0  0  0  0  0  0  0  0  0  0  0
    0.0000    0.0000    0.0000 H   0  0  0  0  0  0  0  0  0  0  0  0
    0.0000    0.0000    0.0000 H   0  0  0  0  0  0  0  0  0  0  0  0
    0.0000    0.0000    0.0000 H   0  0  0  0  0  0  0  0  0  0  0  0
    0.0000    0.0000    0.0000 H   0  0  0  0  0  0  0  0  0  0  0  0
    0.0000    0.0000    0.0000 H   0  0  0  0  0  0  0  0  0  0  0  0
  1  2  1  0
  2  3  1  0
  3  4  1  0
  4  5  1  0
  5  6  1  0
  6  7  1  0
  7  8  1  0
  8  9  1  0
  1 10  1  0
  1 11  1  0
  1 12  1  0
  2 13  1  0
  2 14  1  0
  3 15  1  0
  3 16  1  0
  4 17  1  0
  4 18  1  0
  5 19  1  0
  6 20  1  0
  6 21  1  0
  7 22  1  0
  7 23  1  0
  8 24  1  0
  8 25  1  0
  9 26  1  0
  9 27  1  0
  9 28  1  0
M  END
>  <partial_charges>  (597) 
-0.0926000028849
-0.0794000029564
-0.082999996841
0.171399995685
-0.834399998188
0.171399995685
-0.082999996841
-0.0794000029564
-0.0926000028849
0.0335999988019
0.0335999988019
0.0335999988019
0.0390999987721
0.0390999987721
0.0460000000894
0.0460000000894
0.0254999995232
0.0254999995232
0.357800006866
0.0254999995232
0.0254999995232
0.0460000000894
0.0460000000894
0.0390999987721
0.0390999987721
0.0335999988019
0.0335999988019
0.0335999988019

>  <partial_bond_orders>  (597) 
1.0
1.0
1.0
1.0
1.0
1.0
1.0
1.0
1.0
1.0
1.0
1.0
1.0
1.0
1.0
1.0
1.0
1.0
1.0
1.0
1.0
1.0
1.0
1.0
1.0
1.0
1.0

>  <atom_types>  (597) 
c3
c3
c3
c3
n3
c3
c3
c3
c3
hc
hc
hc
hc
hc
hc
hc
h1
h1
hn
h1
h1
hc
hc
hc
hc
hc
hc
hc

>  <target>  (597) 
-3.24

>  <cal>  (597) 
-2.076

$$$$
mobley_6935906
     RDKit          3D

 34 33  0  0  1  0  0  0  0  0999 V2000
   -2.6920    0.8270    2.4840 C   0  0  0  0  0  0  0  0  0  0  0  0
   -3.1570    2.2530    2.3970 C   0  0  0  0  0  0  0  0  0  0  0  0
   -3.8620    2.8950    3.3480 C   0  0  0  0  0  0  0  0  0  0  0  0
   -4.3550    4.3160    3.3220 C   0  0  0  0  0  0  0  0  0  0  0  0
   -3.3160    5.2690    3.9220 C   0  0  0  0  0  0  0  0  0  0  0  0
   -3.7270    6.7610    3.9420 C   0  0  0  0  0  0  0  0  0  0  0  0
   -5.0040    6.9710    4.7640 C   0  0  0  0  0  0  0  0  0  0  0  0
   -3.7700    7.3310    2.5390 C   0  0  0  0  0  0  0  0  0  0  0  0
   -4.8230    7.8660    1.9080 C   0  0  0  0  0  0  0  0  0  0  0  0
   -2.6940    7.4710    4.6470 O   0  0  0  0  0  0  0  0  0  0  0  0
   -2.8900    8.8120    4.7640 C   0  0  0  0  0  0  0  0  0  0  0  0
   -3.8400    9.4520    4.3340 O   0  0  0  0  0  0  0  0  0  0  0  0
   -1.7420    9.4150    5.5160 C   0  0  0  0  0  0  0  0  0  0  0  0
   -2.7590    2.9640    1.1310 C   0  0  0  0  0  0  0  0  0  0  0  0
    0.0000    0.0000    0.0000 H   0  0  0  0  0  0  0  0  0  0  0  0
    0.0000    0.0000    0.0000 H   0  0  0  0  0  0  0  0  0  0  0  0
    0.0000    0.0000    0.0000 H   0  0  0  0  0  0  0  0  0  0  0  0
    0.0000    0.0000    0.0000 H   0  0  0  0  0  0  0  0  0  0  0  0
    0.0000    0.0000    0.0000 H   0  0  0  0  0  0  0  0  0  0  0  0
    0.0000    0.0000    0.0000 H   0  0  0  0  0  0  0  0  0  0  0  0
    0.0000    0.0000    0.0000 H   0  0  0  0  0  0  0  0  0  0  0  0
    0.0000    0.0000    0.0000 H   0  0  0  0  0  0  0  0  0  0  0  0
    0.0000    0.0000    0.0000 H   0  0  0  0  0  0  0  0  0  0  0  0
    0.0000    0.0000    0.0000 H   0  0  0  0  0  0  0  0  0  0  0  0
    0.0000    0.0000    0.0000 H   0  0  0  0  0  0  0  0  0  0  0  0
    0.0000    0.0000    0.0000 H   0  0  0  0  0  0  0  0  0  0  0  0
    0.0000    0.0000    0.0000 H   0  0  0  0  0  0  0  0  0  0  0  0
    0.0000    0.0000    0.0000 H   0  0  0  0  0  0  0  0  0  0  0  0
    0.0000    0.0000    0.0000 H   0  0  0  0  0  0  0  0  0  0  0  0
    0.0000    0.0000    0.0000 H   0  0  0  0  0  0  0  0  0  0  0  0
    0.0000    0.0000    0.0000 H   0  0  0  0  0  0  0  0  0  0  0  0
    0.0000    0.0000    0.0000 H   0  0  0  0  0  0  0  0  0  0  0  0
    0.0000    0.0000    0.0000 H   0  0  0  0  0  0  0  0  0  0  0  0
    0.0000    0.0000    0.0000 H   0  0  0  0  0  0  0  0  0  0  0  0
  1  2  1  0
  2  3  2  0
  3  4  1  0
  4  5  1  0
  5  6  1  0
  6  7  1  0
  6  8  1  0
  8  9  2  3
  6 10  1  0
 10 11  1  0
 11 12  2  0
 11 13  1  0
  2 14  1  0
  1 15  1  0
  1 16  1  0
  1 17  1  0
  3 18  1  0
  4 19  1  0
  4 20  1  0
  5 21  1  0
  5 22  1  0
  7 23  1  0
  7 24  1  0
  7 25  1  0
  8 26  1  0
  9 27  1  0
  9 28  1  0
 13 29  1  0
 13 30  1  0
 13 31  1  0
 14 32  1  0
 14 33  1  0
 14 34  1  0
M  END
>  <partial_charges>  (598) 
-0.064099997282
-0.105800002813
-0.178000003099
-0.0377000011504
-0.102600000799
0.210500001907
-0.122400000691
-0.158299997449
-0.205500006676
-0.449000000954
0.642799973488
-0.553200006485
-0.153300002217
-0.064099997282
0.041700001806
0.041700001806
0.041700001806
0.11819999665
0.0456999987364
0.0456999987364
0.0656000003219
0.0656000003219
0.0546000003815
0.0546000003815
0.0546000003815
0.131899997592
0.115599997342
0.115599997342
0.0742999985814
0.0742999985814
0.0742999985814
0.041700001806
0.041700001806
0.041700001806

>  <partial_bond_orders>  (598) 
1.0
2.0
1.0
1.0
1.0
1.0
1.0
2.0
1.0
1.0
2.0
1.0
1.0
1.0
1.0
1.0
1.0
1.0
1.0
1.0
1.0
1.0
1.0
1.0
1.0
1.0
1.0
1.0
1.0
1.0
1.0
1.0
1.0

>  <atom_types>  (598) 
c3
c2
c2
c3
c3
c3
c3
c2
c2
os
c
o
c3
c3
hc
hc
hc
ha
hc
hc
hc
hc
hc
hc
hc
ha
ha
ha
hc
hc
hc
hc
hc
hc

>  <target>  (598) 
-2.49

>  <cal>  (598) 
-2.964

$$$$
mobley_7106722
     RDKit          3D

 20 19  0  0  0  0  0  0  0  0999 V2000
    0.7500   -0.2570   -0.6070 C   0  0  0  0  0  0  0  0  0  0  0  0
    0.8430    0.4610   -1.9450 C   0  0  0  0  0  0  0  0  0  0  0  0
    0.8300    1.9810   -1.7630 C   0  0  0  0  0  0  0  0  0  0  0  0
    0.9220    2.7580   -3.0900 C   0  0  0  0  0  0  0  0  0  0  0  0
    2.2230    2.3980   -3.8120 C   0  0  0  0  0  0  0  0  0  0  0  0
    0.8470    4.2720   -2.8860 C   0  0  0  0  0  0  0  0  0  0  0  0
    0.0000    0.0000    0.0000 H   0  0  0  0  0  0  0  0  0  0  0  0
    0.0000    0.0000    0.0000 H   0  0  0  0  0  0  0  0  0  0  0  0
    0.0000    0.0000    0.0000 H   0  0  0  0  0  0  0  0  0  0  0  0
    0.0000    0.0000    0.0000 H   0  0  0  0  0  0  0  0  0  0  0  0
    0.0000    0.0000    0.0000 H   0  0  0  0  0  0  0  0  0  0  0  0
    0.0000    0.0000    0.0000 H   0  0  0  0  0  0  0  0  0  0  0  0
    0.0000    0.0000    0.0000 H   0  0  0  0  0  0  0  0  0  0  0  0
    0.0000    0.0000    0.0000 H   0  0  0  0  0  0  0  0  0  0  0  0
    0.0000    0.0000    0.0000 H   0  0  0  0  0  0  0  0  0  0  0  0
    0.0000    0.0000    0.0000 H   0  0  0  0  0  0  0  0  0  0  0  0
    0.0000    0.0000    0.0000 H   0  0  0  0  0  0  0  0  0  0  0  0
    0.0000    0.0000    0.0000 H   0  0  0  0  0  0  0  0  0  0  0  0
    0.0000    0.0000    0.0000 H   0  0  0  0  0  0  0  0  0  0  0  0
    0.0000    0.0000    0.0000 H   0  0  0  0  0  0  0  0  0  0  0  0
  1  2  1  0
  2  3  1  0
  3  4  1  0
  4  5  1  0
  4  6  1  0
  1  7  1  0
  1  8  1  0
  1  9  1  0
  2 10  1  0
  2 11  1  0
  3 12  1  0
  3 13  1  0
  4 14  1  0
  5 15  1  0
  5 16  1  0
  5 17  1  0
  6 18  1  0
  6 19  1  0
  6 20  1  0
M  END
>  <partial_charges>  (599) 
-0.0922999978065
-0.0807999968529
-0.074500001967
-0.0676999986172
-0.0900999978185
-0.0900999978185
0.0324000008404
0.0324000008404
0.0324000008404
0.0388999991119
0.0388999991119
0.0388000011444
0.0388000011444
0.0445999987423
0.0329999998212
0.0329999998212
0.0329999998212
0.0329999998212
0.0329999998212
0.0329999998212

>  <partial_bond_orders>  (599) 
1.0
1.0
1.0
1.0
1.0
1.0
1.0
1.0
1.0
1.0
1.0
1.0
1.0
1.0
1.0
1.0
1.0
1.0
1.0

>  <atom_types>  (599) 
c3
c3
c3
c3
c3
c3
hc
hc
hc
hc
hc
hc
hc
hc
hc
hc
hc
hc
hc
hc

>  <target>  (599) 
2.51

>  <cal>  (599) 
2.808

$$$$
mobley_2422586
     RDKit          3D

 15 14  0  0  0  0  0  0  0  0999 V2000
   -0.0020   -0.6660    0.8690 C   0  0  0  0  0  0  0  0  0  0  0  0
    1.2440   -0.4430    1.7060 C   0  0  0  0  0  0  0  0  0  0  0  0
    1.2750   -1.3490    2.9270 C   0  0  0  0  0  0  0  0  0  0  0  0
    2.4630   -1.0900    3.6620 O   0  0  0  0  0  0  0  0  0  0  0  0
    2.5500   -1.9090    4.8200 C   0  0  0  0  0  0  0  0  0  0  0  0
    0.0000    0.0000    0.0000 H   0  0  0  0  0  0  0  0  0  0  0  0
    0.0000    0.0000    0.0000 H   0  0  0  0  0  0  0  0  0  0  0  0
    0.0000    0.0000    0.0000 H   0  0  0  0  0  0  0  0  0  0  0  0
    0.0000    0.0000    0.0000 H   0  0  0  0  0  0  0  0  0  0  0  0
    0.0000    0.0000    0.0000 H   0  0  0  0  0  0  0  0  0  0  0  0
    0.0000    0.0000    0.0000 H   0  0  0  0  0  0  0  0  0  0  0  0
    0.0000    0.0000    0.0000 H   0  0  0  0  0  0  0  0  0  0  0  0
    0.0000    0.0000    0.0000 H   0  0  0  0  0  0  0  0  0  0  0  0
    0.0000    0.0000    0.0000 H   0  0  0  0  0  0  0  0  0  0  0  0
    0.0000    0.0000    0.0000 H   0  0  0  0  0  0  0  0  0  0  0  0
  1  2  1  0
  2  3  1  0
  3  4  1  0
  4  5  1  0
  1  6  1  0
  1  7  1  0
  1  8  1  0
  2  9  1  0
  2 10  1  0
  3 11  1  0
  3 12  1  0
  5 13  1  0
  5 14  1  0
  5 15  1  0
M  END
>  <partial_charges>  (600) 
-0.0932999998331
-0.0842999964952
0.12800000608
-0.423500001431
0.117299996316
0.034699998796
0.034699998796
0.034699998796
0.0540000014007
0.0540000014007
0.0245999991894
0.0245999991894
0.0315000005066
0.0315000005066
0.0315000005066

>  <partial_bond_orders>  (600) 
1.0
1.0
1.0
1.0
1.0
1.0
1.0
1.0
1.0
1.0
1.0
1.0
1.0
1.0

>  <atom_types>  (600) 
c3
c3
c3
os
c3
hc
hc
hc
hc
hc
h1
h1
h1
h1
h1

>  <target>  (600) 
-1.66

>  <cal>  (600) 
-0.598

$$$$
mobley_7532833
     RDKit          3D

  6  5  0  0  0  0  0  0  0  0999 V2000
    0.4480    0.2840    0.9570 C   0  0  0  0  0  0  0  0  0  0  0  0
   -0.2060    1.4710    1.5040 C   0  0  0  0  0  0  0  0  0  0  0  0
   -0.7250    2.4140    1.9390 N   0  0  0  0  0  0  0  0  0  0  0  0
    0.0000    0.0000    0.0000 H   0  0  0  0  0  0  0  0  0  0  0  0
    0.0000    0.0000    0.0000 H   0  0  0  0  0  0  0  0  0  0  0  0
    0.0000    0.0000    0.0000 H   0  0  0  0  0  0  0  0  0  0  0  0
  1  2  1  0
  2  3  3  0
  1  4  1  0
  1  5  1  0
  1  6  1  0
M  END
>  <partial_charges>  (601) 
-0.0445999987423
0.208100005984
-0.375900000334
0.070799998939
0.070799998939
0.070799998939

>  <partial_bond_orders>  (601) 
1.0
3.0
1.0
1.0
1.0

>  <atom_types>  (601) 
c3
c1
n1
hc
hc
hc

>  <target>  (601) 
-3.88

>  <cal>  (601) 
-2.789

$$$$
mobley_3762186
     RDKit          3D

  5  4  0  0  0  0  0  0  0  0999 V2000
   -0.0530    0.1330    0.0380 C   0  0  0  0  0  0  0  0  0  0  0  0
   -1.0080   -1.1370   -0.7360 Cl  0  0  0  0  0  0  0  0  0  0  0  0
    1.6140   -0.3930    0.3000 Cl  0  0  0  0  0  0  0  0  0  0  0  0
    0.0000    0.0000    0.0000 H   0  0  0  0  0  0  0  0  0  0  0  0
    0.0000    0.0000    0.0000 H   0  0  0  0  0  0  0  0  0  0  0  0
  1  2  1  0
  1  3  1  0
  1  4  1  0
  1  5  1  0
M  END
>  <partial_charges>  (602) 
0.122800000012
-0.151399999857
-0.151399999857
0.0900000035763
0.0900000035763

>  <partial_bond_orders>  (602) 
1.0
1.0
1.0
1.0

>  <atom_types>  (602) 
c3
cl
cl
h2
h2

>  <target>  (602) 
-1.31

>  <cal>  (602) 
0.038

$$$$
mobley_6055410
     RDKit          3D

 26 27  0  0  0  0  0  0  0  0999 V2000
    1.8850   -1.0360   -0.1120 C   0  0  0  0  0  0  0  0  0  0  0  0
    2.9210   -1.6310    0.6080 C   0  0  0  0  0  0  0  0  0  0  0  0
    2.8780   -1.6520    2.0020 C   0  0  0  0  0  0  0  0  0  0  0  0
    1.8000   -1.0790    2.6760 C   0  0  0  0  0  0  0  0  0  0  0  0
    0.7640   -0.4840    1.9550 C   0  0  0  0  0  0  0  0  0  0  0  0
    0.8070   -0.4630    0.5610 C   0  0  0  0  0  0  0  0  0  0  0  0
   -0.2680    0.1540   -0.1870 C   0  0  0  0  0  0  0  0  0  0  0  0
   -1.0060   -0.6070   -1.0930 C   0  0  0  0  0  0  0  0  0  0  0  0
   -2.0420   -0.0170   -1.8170 C   0  0  0  0  0  0  0  0  0  0  0  0
   -2.3390    1.3340   -1.6350 C   0  0  0  0  0  0  0  0  0  0  0  0
   -1.6000    2.0950   -0.7290 C   0  0  0  0  0  0  0  0  0  0  0  0
   -0.5640    1.5040   -0.0050 C   0  0  0  0  0  0  0  0  0  0  0  0
    0.1380    2.2490    0.8610 F   0  0  0  0  0  0  0  0  0  0  0  0
   -3.3330    1.9010   -2.3320 F   0  0  0  0  0  0  0  0  0  0  0  0
    1.7370   -1.0890    4.1310 C   0  0  0  0  0  0  0  0  0  0  0  0
    2.2260   -1.9560    4.8600 O   0  0  0  0  0  0  0  0  0  0  0  0
    1.0660   -0.0150    4.6280 O   0  0  0  0  0  0  0  0  0  0  0  0
    3.9010   -2.2360    2.6880 O   0  0  0  0  0  0  0  0  0  0  0  0
    0.0000    0.0000    0.0000 H   0  0  0  0  0  0  0  0  0  0  0  0
    0.0000    0.0000    0.0000 H   0  0  0  0  0  0  0  0  0  0  0  0
    0.0000    0.0000    0.0000 H   0  0  0  0  0  0  0  0  0  0  0  0
    0.0000    0.0000    0.0000 H   0  0  0  0  0  0  0  0  0  0  0  0
    0.0000    0.0000    0.0000 H   0  0  0  0  0  0  0  0  0  0  0  0
    0.0000    0.0000    0.0000 H   0  0  0  0  0  0  0  0  0  0  0  0
    0.0000    0.0000    0.0000 H   0  0  0  0  0  0  0  0  0  0  0  0
    0.0000    0.0000    0.0000 H   0  0  0  0  0  0  0  0  0  0  0  0
  1  6  2  0
  1  2  1  0
  2  3  2  0
  3  4  1  0
  4  5  2  0
  5  6  1  0
  6  7  1  0
  7 12  1  0
  7  8  2  0
  8  9  1  0
  9 10  2  0
 10 11  1  0
 11 12  2  0
 12 13  1  0
 10 14  1  0
  4 15  1  0
 15 16  2  0
 15 17  1  0
  3 18  1  0
  1 19  1  0
  2 20  1  0
  5 21  1  0
  8 22  1  0
  9 23  1  0
 11 24  1  0
 17 25  1  0
 18 26  1  0
M  END
>  <partial_charges>  (603) 
-0.041700001806
-0.234799996018
0.189700007439
-0.159400001168
-0.0188999995589
-0.0940999984741
-0.0850000008941
-0.0728999972343
-0.181500002742
0.156200006604
-0.208199992776
0.164800003171
-0.12729999423
-0.13220000267
0.661000013351
-0.528299987316
-0.612600028515
-0.466399997473
0.145199999213
0.141100004315
0.163499996066
0.147400006652
0.155599996448
0.167699992657
0.444599986076
0.426400005817

>  <partial_bond_orders>  (603) 
2.0
1.0
2.0
1.0
2.0
1.0
1.0
2.0
1.0
2.0
1.0
2.0
1.0
1.0
1.0
1.0
2.0
1.0
1.0
1.0
1.0
1.0
1.0
1.0
1.0
1.0
1.0

>  <atom_types>  (603) 
ca
ca
ca
ca
ca
cp
cp
ca
ca
ca
ca
ca
f
f
c
o
oh
oh
ha
ha
ha
ha
ha
ha
ho
ho

>  <target>  (603) 
-9.4

>  <cal>  (603) 
-6.613

$$$$
mobley_6896128
     RDKit          3D

 26 25  0  0  1  0  0  0  0  0999 V2000
    0.1380    0.8570    0.4570 C   0  0  0  0  0  0  0  0  0  0  0  0
    0.1820    0.7330    1.9720 C   0  0  0  0  0  0  0  0  0  0  0  0
    1.3510   -0.1420    2.4290 C   0  0  0  0  0  0  0  0  0  0  0  0
    1.3890   -0.2620    3.9560 C   0  0  0  0  0  0  0  0  0  0  0  0
    2.5480   -1.1350    4.4840 C   0  0  0  0  0  0  0  0  0  0  0  0
    3.9120   -0.5890    4.0500 C   0  0  0  0  0  0  0  0  0  0  0  0
    2.4440   -1.2330    6.0210 C   0  0  0  0  0  0  0  0  0  0  0  0
    3.5400   -2.0740    6.6610 C   0  0  0  0  0  0  0  0  0  0  0  0
    0.0000    0.0000    0.0000 H   0  0  0  0  0  0  0  0  0  0  0  0
    0.0000    0.0000    0.0000 H   0  0  0  0  0  0  0  0  0  0  0  0
    0.0000    0.0000    0.0000 H   0  0  0  0  0  0  0  0  0  0  0  0
    0.0000    0.0000    0.0000 H   0  0  0  0  0  0  0  0  0  0  0  0
    0.0000    0.0000    0.0000 H   0  0  0  0  0  0  0  0  0  0  0  0
    0.0000    0.0000    0.0000 H   0  0  0  0  0  0  0  0  0  0  0  0
    0.0000    0.0000    0.0000 H   0  0  0  0  0  0  0  0  0  0  0  0
    0.0000    0.0000    0.0000 H   0  0  0  0  0  0  0  0  0  0  0  0
    0.0000    0.0000    0.0000 H   0  0  0  0  0  0  0  0  0  0  0  0
    0.0000    0.0000    0.0000 H   0  0  0  0  0  0  0  0  0  0  0  0
    0.0000    0.0000    0.0000 H   0  0  0  0  0  0  0  0  0  0  0  0
    0.0000    0.0000    0.0000 H   0  0  0  0  0  0  0  0  0  0  0  0
    0.0000    0.0000    0.0000 H   0  0  0  0  0  0  0  0  0  0  0  0
    0.0000    0.0000    0.0000 H   0  0  0  0  0  0  0  0  0  0  0  0
    0.0000    0.0000    0.0000 H   0  0  0  0  0  0  0  0  0  0  0  0
    0.0000    0.0000    0.0000 H   0  0  0  0  0  0  0  0  0  0  0  0
    0.0000    0.0000    0.0000 H   0  0  0  0  0  0  0  0  0  0  0  0
    0.0000    0.0000    0.0000 H   0  0  0  0  0  0  0  0  0  0  0  0
  1  2  1  0
  2  3  1  0
  3  4  1  0
  4  5  1  0
  5  6  1  0
  5  7  1  0
  7  8  1  0
  1  9  1  0
  1 10  1  0
  1 11  1  0
  2 12  1  0
  2 13  1  0
  3 14  1  0
  3 15  1  0
  4 16  1  0
  4 17  1  0
  5 18  1  0
  6 19  1  0
  6 20  1  0
  6 21  1  0
  7 22  1  0
  7 23  1  0
  8 24  1  0
  8 25  1  0
  8 26  1  0
M  END
>  <partial_charges>  (604) 
-0.0914999991655
-0.0798000022769
-0.0786999985576
-0.0741999968886
-0.0625
0.0449000000954
-0.0908000022173
-0.0766000002623
-0.091899998486
0.0328000001609
0.0328000001609
0.0328000001609
0.0375000014901
0.0375000014901
0.0390999987721
0.0390999987721
0.0377000011504
0.0377000011504
0.033900000155
0.033900000155
0.033900000155
0.0372000001371
0.0372000001371
0.0326999984682
0.0326999984682
0.0326999984682

>  <partial_bond_orders>  (604) 
1.0
1.0
1.0
1.0
1.0
1.0
1.0
1.0
1.0
1.0
1.0
1.0
1.0
1.0
1.0
1.0
1.0
1.0
1.0
1.0
1.0
1.0
1.0
1.0
1.0

>  <atom_types>  (604) 
c3
c3
c3
c3
c3
hc
c3
c3
c3
hc
hc
hc
hc
hc
hc
hc
hc
hc
hc
hc
hc
hc
hc
hc
hc
hc

>  <target>  (604) 
2.97

>  <cal>  (604) 
3.03

$$$$
mobley_8118832
     RDKit          3D

 10  9  0  0  0  0  0  0  0  0999 V2000
   -0.4680    0.6050    0.7690 C   0  0  0  0  0  0  0  0  0  0  0  0
   -1.5850    0.1860    1.3740 C   0  0  0  0  0  0  0  0  0  0  0  0
   -2.2690   -1.1040    1.0630 C   0  0  0  0  0  0  0  0  0  0  0  0
   -2.3060   -1.8960    2.2410 O   0  0  0  0  0  0  0  0  0  0  0  0
    0.0000    0.0000    0.0000 H   0  0  0  0  0  0  0  0  0  0  0  0
    0.0000    0.0000    0.0000 H   0  0  0  0  0  0  0  0  0  0  0  0
    0.0000    0.0000    0.0000 H   0  0  0  0  0  0  0  0  0  0  0  0
    0.0000    0.0000    0.0000 H   0  0  0  0  0  0  0  0  0  0  0  0
    0.0000    0.0000    0.0000 H   0  0  0  0  0  0  0  0  0  0  0  0
    0.0000    0.0000    0.0000 H   0  0  0  0  0  0  0  0  0  0  0  0
  1  2  2  3
  2  3  1  0
  3  4  1  0
  1  5  1  0
  1  6  1  0
  2  7  1  0
  3  8  1  0
  3  9  1  0
  4 10  1  0
M  END
>  <partial_charges>  (605) 
-0.206300005317
-0.165399998426
0.159600004554
-0.595600008965
0.113200001419
0.113200001419
0.131899997592
0.0252000000328
0.0252000000328
0.398799985647

>  <partial_bond_orders>  (605) 
2.0
1.0
1.0
1.0
1.0
1.0
1.0
1.0
1.0

>  <atom_types>  (605) 
c2
c2
c3
oh
ha
ha
ha
h1
h1
ho

>  <target>  (605) 
-5.03

>  <cal>  (605) 
-3.286

$$$$
mobley_5079234
     RDKit          3D

 24 23  0  0  0  0  0  0  0  0999 V2000
    2.0150   -2.4050   -0.2390 C   0  0  0  0  0  0  0  0  0  0  0  0
    1.5980   -2.9290   -1.6050 C   0  0  0  0  0  0  0  0  0  0  0  0
    0.0760   -3.0070   -1.7320 C   0  0  0  0  0  0  0  0  0  0  0  0
   -0.3960   -3.5290   -3.0910 C   0  0  0  0  0  0  0  0  0  0  0  0
   -1.9190   -3.6070   -3.2180 C   0  0  0  0  0  0  0  0  0  0  0  0
   -2.3340   -4.1330   -4.5910 C   0  0  0  0  0  0  0  0  0  0  0  0
   -3.8480   -4.2150   -4.7270 C   0  0  0  0  0  0  0  0  0  0  0  0
   -4.1660   -4.7090   -6.0210 O   0  0  0  0  0  0  0  0  0  0  0  0
    0.0000    0.0000    0.0000 H   0  0  0  0  0  0  0  0  0  0  0  0
    0.0000    0.0000    0.0000 H   0  0  0  0  0  0  0  0  0  0  0  0
    0.0000    0.0000    0.0000 H   0  0  0  0  0  0  0  0  0  0  0  0
    0.0000    0.0000    0.0000 H   0  0  0  0  0  0  0  0  0  0  0  0
    0.0000    0.0000    0.0000 H   0  0  0  0  0  0  0  0  0  0  0  0
    0.0000    0.0000    0.0000 H   0  0  0  0  0  0  0  0  0  0  0  0
    0.0000    0.0000    0.0000 H   0  0  0  0  0  0  0  0  0  0  0  0
    0.0000    0.0000    0.0000 H   0  0  0  0  0  0  0  0  0  0  0  0
    0.0000    0.0000    0.0000 H   0  0  0  0  0  0  0  0  0  0  0  0
    0.0000    0.0000    0.0000 H   0  0  0  0  0  0  0  0  0  0  0  0
    0.0000    0.0000    0.0000 H   0  0  0  0  0  0  0  0  0  0  0  0
    0.0000    0.0000    0.0000 H   0  0  0  0  0  0  0  0  0  0  0  0
    0.0000    0.0000    0.0000 H   0  0  0  0  0  0  0  0  0  0  0  0
    0.0000    0.0000    0.0000 H   0  0  0  0  0  0  0  0  0  0  0  0
    0.0000    0.0000    0.0000 H   0  0  0  0  0  0  0  0  0  0  0  0
    0.0000    0.0000    0.0000 H   0  0  0  0  0  0  0  0  0  0  0  0
  1  2  1  0
  2  3  1  0
  3  4  1  0
  4  5  1  0
  5  6  1  0
  6  7  1  0
  7  8  1  0
  1  9  1  0
  1 10  1  0
  1 11  1  0
  2 12  1  0
  2 13  1  0
  3 14  1  0
  3 15  1  0
  4 16  1  0
  4 17  1  0
  5 18  1  0
  5 19  1  0
  6 20  1  0
  6 21  1  0
  7 22  1  0
  7 23  1  0
  8 24  1  0
M  END
>  <partial_charges>  (606) 
-0.0923999994993
-0.0797000005841
-0.0790000036359
-0.0778999999166
-0.077699996531
-0.0841000005603
0.13369999826
-0.604399979115
0.0328000001609
0.0328000001609
0.0328000001609
0.0390000008047
0.0390000008047
0.0384000018239
0.0384000018239
0.0408999994397
0.0408999994397
0.0388999991119
0.0388999991119
0.054999999702
0.054999999702
0.0201999992132
0.0201999992132
0.398400008678

>  <partial_bond_orders>  (606) 
1.0
1.0
1.0
1.0
1.0
1.0
1.0
1.0
1.0
1.0
1.0
1.0
1.0
1.0
1.0
1.0
1.0
1.0
1.0
1.0
1.0
1.0
1.0

>  <atom_types>  (606) 
c3
c3
c3
c3
c3
c3
c3
oh
hc
hc
hc
hc
hc
hc
hc
hc
hc
hc
hc
hc
hc
h1
h1
ho

>  <target>  (606) 
-4.21

>  <cal>  (606) 
-2.917

$$$$
mobley_2078467
     RDKit          3D

 33 33  0  0  1  0  0  0  0  0999 V2000
   -3.2530    2.2960   -4.3070 C   0  0  0  0  0  0  0  0  0  0  0  0
   -2.9840    3.5260   -3.4350 C   0  0  0  0  0  0  0  0  0  0  0  0
   -2.3930    3.1750   -2.1110 C   0  0  0  0  0  0  0  0  0  0  0  0
   -1.1710    2.5050   -2.0490 C   0  0  0  0  0  0  0  0  0  0  0  0
   -0.6180    2.1770   -0.8110 C   0  0  0  0  0  0  0  0  0  0  0  0
   -1.2870    2.5200    0.3650 C   0  0  0  0  0  0  0  0  0  0  0  0
   -2.5090    3.1900    0.3020 C   0  0  0  0  0  0  0  0  0  0  0  0
   -3.0620    3.5170   -0.9360 C   0  0  0  0  0  0  0  0  0  0  0  0
   -0.6900    2.1630    1.7040 C   0  0  0  0  0  0  0  0  0  0  0  0
    0.2330    3.2520    2.2850 C   0  0  0  0  0  0  0  0  0  0  0  0
   -0.5050    4.5760    2.4970 C   0  0  0  0  0  0  0  0  0  0  0  0
    0.8260    2.7740    3.6130 C   0  0  0  0  0  0  0  0  0  0  0  0
   -2.1170    4.5240   -4.1890 C   0  0  0  0  0  0  0  0  0  0  0  0
   -1.2850    4.2380   -5.0390 O   0  0  0  0  0  0  0  0  0  0  0  0
   -2.3650    5.8060   -3.8100 O   0  0  0  0  0  0  0  0  0  0  0  0
    0.0000    0.0000    0.0000 H   0  0  0  0  0  0  0  0  0  0  0  0
    0.0000    0.0000    0.0000 H   0  0  0  0  0  0  0  0  0  0  0  0
    0.0000    0.0000    0.0000 H   0  0  0  0  0  0  0  0  0  0  0  0
    0.0000    0.0000    0.0000 H   0  0  0  0  0  0  0  0  0  0  0  0
    0.0000    0.0000    0.0000 H   0  0  0  0  0  0  0  0  0  0  0  0
    0.0000    0.0000    0.0000 H   0  0  0  0  0  0  0  0  0  0  0  0
    0.0000    0.0000    0.0000 H   0  0  0  0  0  0  0  0  0  0  0  0
    0.0000    0.0000    0.0000 H   0  0  0  0  0  0  0  0  0  0  0  0
    0.0000    0.0000    0.0000 H   0  0  0  0  0  0  0  0  0  0  0  0
    0.0000    0.0000    0.0000 H   0  0  0  0  0  0  0  0  0  0  0  0
    0.0000    0.0000    0.0000 H   0  0  0  0  0  0  0  0  0  0  0  0
    0.0000    0.0000    0.0000 H   0  0  0  0  0  0  0  0  0  0  0  0
    0.0000    0.0000    0.0000 H   0  0  0  0  0  0  0  0  0  0  0  0
    0.0000    0.0000    0.0000 H   0  0  0  0  0  0  0  0  0  0  0  0
    0.0000    0.0000    0.0000 H   0  0  0  0  0  0  0  0  0  0  0  0
    0.0000    0.0000    0.0000 H   0  0  0  0  0  0  0  0  0  0  0  0
    0.0000    0.0000    0.0000 H   0  0  0  0  0  0  0  0  0  0  0  0
    0.0000    0.0000    0.0000 H   0  0  0  0  0  0  0  0  0  0  0  0
  1  2  1  0
  2  3  1  0
  3  8  2  0
  3  4  1  0
  4  5  2  0
  5  6  1  0
  6  7  2  0
  7  8  1  0
  6  9  1  0
  9 10  1  0
 10 11  1  0
 10 12  1  0
  2 13  1  0
 13 14  2  0
 13 15  1  0
  1 16  1  0
  1 17  1  0
  1 18  1  0
  2 19  1  0
  4 20  1  0
  5 21  1  0
  7 22  1  0
  8 23  1  0
  9 24  1  0
  9 25  1  0
 10 26  1  0
 11 27  1  0
 11 28  1  0
 11 29  1  0
 12 30  1  0
 12 31  1  0
 12 32  1  0
 15 33  1  0
M  END
>  <partial_charges>  (607) 
-0.0872000008821
-0.054200001061
0.0850000008941
-0.0904000028968
-0.109399996698
-0.126499995589
-0.0648000016809
-0.126499995589
-0.109399996698
-0.0359000004828
-0.0619000010192
-0.0923999994993
-0.0923999994993
0.634100019932
-0.538900017738
-0.613399982452
0.0504000000656
0.0504000000656
0.0504000000656
0.13220000267
0.133900001645
0.133900001645
0.13220000267
0.0474000014365
0.0474000014365
0.0515000000596
0.035300001502
0.035300001502
0.035300001502
0.035300001502
0.035300001502
0.035300001502
0.44240000844

>  <partial_bond_orders>  (607) 
1.0
1.0
1.0
2.0
1.0
2.0
1.0
2.0
1.0
1.0
1.0
1.0
1.0
1.0
2.0
1.0
1.0
1.0
1.0
1.0
1.0
1.0
1.0
1.0
1.0
1.0
1.0
1.0
1.0
1.0
1.0
1.0
1.0

>  <atom_types>  (607) 
c3
c3
hc
ca
ca
ca
ca
ca
ca
c3
c3
c3
c3
c
o
oh
hc
hc
hc
ha
ha
ha
ha
hc
hc
hc
hc
hc
hc
hc
hc
hc
ho

>  <target>  (607) 
-7.0

>  <cal>  (607) 
-10.857

$$$$
mobley_6201330
     RDKit          3D

 25 25  0  0  0  0  0  0  0  0999 V2000
    0.1270   -0.8830    0.7360 C   0  0  0  0  0  0  0  0  0  0  0  0
    1.3670   -0.6500    1.5800 C   0  0  0  0  0  0  0  0  0  0  0  0
    1.2750   -1.3490    2.9280 C   0  0  0  0  0  0  0  0  0  0  0  0
    2.4630   -1.0900    3.6620 O   0  0  0  0  0  0  0  0  0  0  0  0
    2.5350   -1.6510    4.9010 C   0  0  0  0  0  0  0  0  0  0  0  0
    1.6790   -2.3470    5.4240 O   0  0  0  0  0  0  0  0  0  0  0  0
    3.8190   -1.3050    5.5620 C   0  0  0  0  0  0  0  0  0  0  0  0
    4.0950   -1.7820    6.8440 C   0  0  0  0  0  0  0  0  0  0  0  0
    5.3010   -1.4570    7.4650 C   0  0  0  0  0  0  0  0  0  0  0  0
    6.2310   -0.6550    6.8040 C   0  0  0  0  0  0  0  0  0  0  0  0
    5.9560   -0.1790    5.5220 C   0  0  0  0  0  0  0  0  0  0  0  0
    4.7500   -0.5040    4.9010 C   0  0  0  0  0  0  0  0  0  0  0  0
    7.4090   -0.3380    7.4090 O   0  0  0  0  0  0  0  0  0  0  0  0
    0.0000    0.0000    0.0000 H   0  0  0  0  0  0  0  0  0  0  0  0
    0.0000    0.0000    0.0000 H   0  0  0  0  0  0  0  0  0  0  0  0
    0.0000    0.0000    0.0000 H   0  0  0  0  0  0  0  0  0  0  0  0
    0.0000    0.0000    0.0000 H   0  0  0  0  0  0  0  0  0  0  0  0
    0.0000    0.0000    0.0000 H   0  0  0  0  0  0  0  0  0  0  0  0
    0.0000    0.0000    0.0000 H   0  0  0  0  0  0  0  0  0  0  0  0
    0.0000    0.0000    0.0000 H   0  0  0  0  0  0  0  0  0  0  0  0
    0.0000    0.0000    0.0000 H   0  0  0  0  0  0  0  0  0  0  0  0
    0.0000    0.0000    0.0000 H   0  0  0  0  0  0  0  0  0  0  0  0
    0.0000    0.0000    0.0000 H   0  0  0  0  0  0  0  0  0  0  0  0
    0.0000    0.0000    0.0000 H   0  0  0  0  0  0  0  0  0  0  0  0
    0.0000    0.0000    0.0000 H   0  0  0  0  0  0  0  0  0  0  0  0
  1  2  1  0
  2  3  1  0
  3  4  1  0
  4  5  1  0
  5  6  2  0
  5  7  1  0
  7 12  2  0
  7  8  1  0
  8  9  2  0
  9 10  1  0
 10 11  2  0
 11 12  1  0
 10 13  1  0
  1 14  1  0
  1 15  1  0
  1 16  1  0
  2 17  1  0
  2 18  1  0
  3 19  1  0
  3 20  1  0
  8 21  1  0
  9 22  1  0
 11 23  1  0
 12 24  1  0
 13 25  1  0
M  END
>  <partial_charges>  (608) 
-0.0917999967933
-0.106499999762
0.133499994874
-0.432999998331
0.650099992752
-0.534699976444
-0.156499996781
-0.0461000017822
-0.194399997592
0.148300006986
-0.194399997592
-0.0461000017822
-0.492300003767
0.0368999987841
0.0368999987841
0.0368999987841
0.0524999983609
0.0524999983609
0.0640000030398
0.0640000030398
0.149299994111
0.149100005627
0.149100005627
0.149299994111
0.423400014639

>  <partial_bond_orders>  (608) 
1.0
1.0
1.0
1.0
2.0
1.0
2.0
1.0
2.0
1.0
2.0
1.0
1.0
1.0
1.0
1.0
1.0
1.0
1.0
1.0
1.0
1.0
1.0
1.0
1.0

>  <atom_types>  (608) 
c3
c3
c3
os
c
o
ca
ca
ca
ca
ca
ca
oh
hc
hc
hc
hc
hc
h1
h1
ha
ha
ha
ha
ho

>  <target>  (608) 
-9.37

>  <cal>  (608) 
-8.945

$$$$
mobley_1278715
     RDKit          3D

  8  7  0  0  0  0  0  0  0  0999 V2000
   -0.2320   -0.3810   -0.6370 C   0  0  0  0  0  0  0  0  0  0  0  0
    0.2320    0.3810    0.6370 C   0  0  0  0  0  0  0  0  0  0  0  0
    2.0320    0.4310    0.7700 Cl  0  0  0  0  0  0  0  0  0  0  0  0
   -0.3880   -0.3940    2.1450 Cl  0  0  0  0  0  0  0  0  0  0  0  0
   -0.3460    2.0910    0.6450 Cl  0  0  0  0  0  0  0  0  0  0  0  0
   -2.0320   -0.4310   -0.7700 Cl  0  0  0  0  0  0  0  0  0  0  0  0
    0.3880    0.3940   -2.1450 Cl  0  0  0  0  0  0  0  0  0  0  0  0
    0.3460   -2.0910   -0.6450 Cl  0  0  0  0  0  0  0  0  0  0  0  0
  1  2  1  0
  2  3  1  0
  2  4  1  0
  2  5  1  0
  1  6  1  0
  1  7  1  0
  1  8  1  0
M  END
>  <partial_charges>  (609) 
0.221900001168
0.222000002861
-0.0740000009537
-0.0740000009537
-0.0740000009537
-0.0740000009537
-0.0740000009537
-0.0740000009537

>  <partial_bond_orders>  (609) 
1.0
1.0
1.0
1.0
1.0
1.0
1.0

>  <atom_types>  (609) 
c3
c3
cl
cl
cl
cl
cl
cl

>  <target>  (609) 
-0.64

>  <cal>  (609) 
0.885

$$$$
mobley_7769613
     RDKit          3D

 14 13  0  0  0  0  0  0  0  0999 V2000
   -0.2070    0.7520    1.2340 C   0  0  0  0  0  0  0  0  0  0  0  0
    0.0440    0.2730   -0.1940 C   0  0  0  0  0  0  0  0  0  0  0  0
   -1.1600   -0.4930   -0.7370 C   0  0  0  0  0  0  0  0  0  0  0  0
    1.3160   -0.5690   -0.2770 C   0  0  0  0  0  0  0  0  0  0  0  0
    0.3030    1.8680   -1.3260 Br  0  0  0  0  0  0  0  0  0  0  0  0
    0.0000    0.0000    0.0000 H   0  0  0  0  0  0  0  0  0  0  0  0
    0.0000    0.0000    0.0000 H   0  0  0  0  0  0  0  0  0  0  0  0
    0.0000    0.0000    0.0000 H   0  0  0  0  0  0  0  0  0  0  0  0
    0.0000    0.0000    0.0000 H   0  0  0  0  0  0  0  0  0  0  0  0
    0.0000    0.0000    0.0000 H   0  0  0  0  0  0  0  0  0  0  0  0
    0.0000    0.0000    0.0000 H   0  0  0  0  0  0  0  0  0  0  0  0
    0.0000    0.0000    0.0000 H   0  0  0  0  0  0  0  0  0  0  0  0
    0.0000    0.0000    0.0000 H   0  0  0  0  0  0  0  0  0  0  0  0
    0.0000    0.0000    0.0000 H   0  0  0  0  0  0  0  0  0  0  0  0
  1  2  1  0
  2  3  1  0
  2  4  1  0
  2  5  1  0
  1  6  1  0
  1  7  1  0
  1  8  1  0
  3  9  1  0
  3 10  1  0
  3 11  1  0
  4 12  1  0
  4 13  1  0
  4 14  1  0
M  END
>  <partial_charges>  (610) 
-0.0936999991536
0.0520000010729
-0.0936999991536
-0.0936999991536
-0.207800000906
0.0485000014305
0.0485000014305
0.0485000014305
0.0485000014305
0.0485000014305
0.0485000014305
0.0485000014305
0.0485000014305
0.0485000014305

>  <partial_bond_orders>  (610) 
1.0
1.0
1.0
1.0
1.0
1.0
1.0
1.0
1.0
1.0
1.0
1.0
1.0

>  <atom_types>  (610) 
c3
c3
c3
c3
br
hc
hc
hc
hc
hc
hc
hc
hc
hc

>  <target>  (610) 
0.84

>  <cal>  (610) 
0.438

$$$$
mobley_4936555
     RDKit          3D

 33 34  0  0  0  0  0  0  0  0999 V2000
    1.9570   -1.0260   -1.6040 C   0  0  0  0  0  0  0  0  0  0  0  0
    1.8850   -1.0360   -0.1120 C   0  0  0  0  0  0  0  0  0  0  0  0
    2.9210   -1.6310    0.6080 C   0  0  0  0  0  0  0  0  0  0  0  0
    2.8780   -1.6520    2.0020 C   0  0  0  0  0  0  0  0  0  0  0  0
    1.8000   -1.0790    2.6760 C   0  0  0  0  0  0  0  0  0  0  0  0
    0.7640   -0.4840    1.9550 C   0  0  0  0  0  0  0  0  0  0  0  0
    0.8070   -0.4630    0.5610 C   0  0  0  0  0  0  0  0  0  0  0  0
   -0.3030    0.1740   -0.2160 C   0  0  0  0  0  0  0  0  0  0  0  0
   -0.3200    0.0900    2.6560 N   0  0  0  0  0  0  0  0  0  0  0  0
   -0.9210   -0.2110    3.8920 C   0  0  0  0  0  0  0  0  0  0  0  0
   -0.9090   -1.5290    4.3490 C   0  0  0  0  0  0  0  0  0  0  0  0
   -1.4990   -1.8490    5.5710 C   0  0  0  0  0  0  0  0  0  0  0  0
   -2.1020   -0.8510    6.3370 C   0  0  0  0  0  0  0  0  0  0  0  0
   -2.1140    0.4670    5.8800 C   0  0  0  0  0  0  0  0  0  0  0  0
   -1.5230    0.7870    4.6570 C   0  0  0  0  0  0  0  0  0  0  0  0
   -1.5530    2.1730    4.2080 C   0  0  0  0  0  0  0  0  0  0  0  0
   -0.7000    2.7110    3.4980 O   0  0  0  0  0  0  0  0  0  0  0  0
   -2.6490    2.8400    4.6600 O   0  0  0  0  0  0  0  0  0  0  0  0
    0.0000    0.0000    0.0000 H   0  0  0  0  0  0  0  0  0  0  0  0
    0.0000    0.0000    0.0000 H   0  0  0  0  0  0  0  0  0  0  0  0
    0.0000    0.0000    0.0000 H   0  0  0  0  0  0  0  0  0  0  0  0
    0.0000    0.0000    0.0000 H   0  0  0  0  0  0  0  0  0  0  0  0
    0.0000    0.0000    0.0000 H   0  0  0  0  0  0  0  0  0  0  0  0
    0.0000    0.0000    0.0000 H   0  0  0  0  0  0  0  0  0  0  0  0
    0.0000    0.0000    0.0000 H   0  0  0  0  0  0  0  0  0  0  0  0
    0.0000    0.0000    0.0000 H   0  0  0  0  0  0  0  0  0  0  0  0
    0.0000    0.0000    0.0000 H   0  0  0  0  0  0  0  0  0  0  0  0
    0.0000    0.0000    0.0000 H   0  0  0  0  0  0  0  0  0  0  0  0
    0.0000    0.0000    0.0000 H   0  0  0  0  0  0  0  0  0  0  0  0
    0.0000    0.0000    0.0000 H   0  0  0  0  0  0  0  0  0  0  0  0
    0.0000    0.0000    0.0000 H   0  0  0  0  0  0  0  0  0  0  0  0
    0.0000    0.0000    0.0000 H   0  0  0  0  0  0  0  0  0  0  0  0
    0.0000    0.0000    0.0000 H   0  0  0  0  0  0  0  0  0  0  0  0
  1  2  1  0
  2  7  2  0
  2  3  1  0
  3  4  2  0
  4  5  1  0
  5  6  2  0
  6  7  1  0
  7  8  1  0
  6  9  1  0
  9 10  1  0
 10 15  1  0
 10 11  2  0
 11 12  1  0
 12 13  2  0
 13 14  1  0
 14 15  2  0
 15 16  1  0
 16 17  2  0
 16 18  1  0
  1 19  1  0
  1 20  1  0
  1 21  1  0
  3 22  1  0
  4 23  1  0
  5 24  1  0
  8 25  1  0
  8 26  1  0
  8 27  1  0
  9 28  1  0
 11 29  1  0
 12 30  1  0
 13 31  1  0
 14 32  1  0
 18 33  1  0
M  END
>  <partial_charges>  (611) 
-0.056099999696
-0.0675999969244
-0.129299998283
-0.122400000691
-0.140000000596
0.133799999952
-0.0789000019431
-0.0599999986589
-0.66740000248
0.268000006676
-0.22120000422
-0.0511999987066
-0.20640000701
-0.0258000008762
-0.231900006533
0.663999974728
-0.586700022221
-0.601800024509
0.0460000000894
0.0460000000894
0.0460000000894
0.134700000286
0.135299995542
0.140499994159
0.0500999987125
0.0500999987125
0.0500999987125
0.470299988985
0.147699996829
0.13330000639
0.138099998236
0.148000001907
0.44470000267

>  <partial_bond_orders>  (611) 
1.0
2.0
1.0
2.0
1.0
2.0
1.0
1.0
1.0
1.0
2.0
1.0
2.0
1.0
2.0
1.0
1.0
2.0
1.0
1.0
1.0
1.0
1.0
1.0
1.0
1.0
1.0
1.0
1.0
1.0
1.0
1.0
1.0
1.0

>  <atom_types>  (611) 
c3
ca
ca
ca
ca
ca
ca
c3
nh
ca
ca
ca
ca
ca
ca
c
o
oh
hc
hc
hc
ha
ha
ha
hc
hc
hc
hn
ha
ha
ha
ha
ho

>  <target>  (611) 
-6.78

>  <cal>  (611) 
-7.665

$$$$
mobley_6929123
     RDKit          3D

 11 10  0  0  0  0  0  0  0  0999 V2000
   -0.3570   -0.1350    1.0260 C   0  0  0  0  0  0  0  0  0  0  0  0
    0.7390   -0.4470    1.8930 O   0  0  0  0  0  0  0  0  0  0  0  0
    1.4130   -1.6000    1.6010 C   0  0  0  0  0  0  0  0  0  0  0  0
    1.1540   -2.3620    0.6800 O   0  0  0  0  0  0  0  0  0  0  0  0
    2.5220   -1.7680    2.6030 C   0  0  0  0  0  0  0  0  0  0  0  0
    3.4290   -3.2530    2.2670 Cl  0  0  0  0  0  0  0  0  0  0  0  0
    0.0000    0.0000    0.0000 H   0  0  0  0  0  0  0  0  0  0  0  0
    0.0000    0.0000    0.0000 H   0  0  0  0  0  0  0  0  0  0  0  0
    0.0000    0.0000    0.0000 H   0  0  0  0  0  0  0  0  0  0  0  0
    0.0000    0.0000    0.0000 H   0  0  0  0  0  0  0  0  0  0  0  0
    0.0000    0.0000    0.0000 H   0  0  0  0  0  0  0  0  0  0  0  0
  1  2  1  0
  2  3  1  0
  3  4  2  0
  3  5  1  0
  5  6  1  0
  1  7  1  0
  1  8  1  0
  1  9  1  0
  5 10  1  0
  5 11  1  0
M  END
>  <partial_charges>  (612) 
0.12729999423
-0.447299987078
0.620700001717
-0.506900012493
-0.0292000006884
-0.128800004721
0.0535999983549
0.0535999983549
0.0535999983549
0.101599998772
0.101599998772

>  <partial_bond_orders>  (612) 
1.0
1.0
2.0
1.0
1.0
1.0
1.0
1.0
1.0
1.0

>  <atom_types>  (612) 
c3
os
c
o
c3
cl
h1
h1
h1
h1
h1

>  <target>  (612) 
-4.0

>  <cal>  (612) 
-3.816

$$$$
mobley_5006685
     RDKit          3D

 25 25  0  0  1  0  0  0  0  0999 V2000
    5.8420   -2.3170   -2.6940 C   0  0  0  0  0  0  0  0  0  0  0  0
    5.7460   -0.8210   -2.6400 C   0  0  0  0  0  0  0  0  0  0  0  0
    6.7970   -0.0320   -2.9060 C   0  0  0  0  0  0  0  0  0  0  0  0
    4.4080   -0.2590   -2.2720 C   0  0  0  0  0  0  0  0  0  0  0  0
    3.3360   -0.6550   -3.2970 C   0  0  0  0  0  0  0  0  0  0  0  0
    1.9790   -0.0350   -2.9460 C   0  0  0  0  0  0  0  0  0  0  0  0
    1.6550   -0.1450   -1.4870 C   0  0  0  0  0  0  0  0  0  0  0  0
    2.5540   -0.4610   -0.5440 C   0  0  0  0  0  0  0  0  0  0  0  0
    4.0030   -0.7090   -0.8570 C   0  0  0  0  0  0  0  0  0  0  0  0
    0.2720    0.0840   -1.0610 C   0  0  0  0  0  0  0  0  0  0  0  0
   -0.6240    0.3600   -1.8490 O   0  0  0  0  0  0  0  0  0  0  0  0
    0.0000    0.0000    0.0000 H   0  0  0  0  0  0  0  0  0  0  0  0
    0.0000    0.0000    0.0000 H   0  0  0  0  0  0  0  0  0  0  0  0
    0.0000    0.0000    0.0000 H   0  0  0  0  0  0  0  0  0  0  0  0
    0.0000    0.0000    0.0000 H   0  0  0  0  0  0  0  0  0  0  0  0
    0.0000    0.0000    0.0000 H   0  0  0  0  0  0  0  0  0  0  0  0
    0.0000    0.0000    0.0000 H   0  0  0  0  0  0  0  0  0  0  0  0
    0.0000    0.0000    0.0000 H   0  0  0  0  0  0  0  0  0  0  0  0
    0.0000    0.0000    0.0000 H   0  0  0  0  0  0  0  0  0  0  0  0
    0.0000    0.0000    0.0000 H   0  0  0  0  0  0  0  0  0  0  0  0
    0.0000    0.0000    0.0000 H   0  0  0  0  0  0  0  0  0  0  0  0
    0.0000    0.0000    0.0000 H   0  0  0  0  0  0  0  0  0  0  0  0
    0.0000    0.0000    0.0000 H   0  0  0  0  0  0  0  0  0  0  0  0
    0.0000    0.0000    0.0000 H   0  0  0  0  0  0  0  0  0  0  0  0
    0.0000    0.0000    0.0000 H   0  0  0  0  0  0  0  0  0  0  0  0
  1  2  1  0
  2  3  2  3
  2  4  1  0
  4  9  1  0
  4  5  1  0
  5  6  1  0
  6  7  1  0
  7  8  2  0
  8  9  1  0
  7 10  1  0
 10 11  2  0
  1 12  1  0
  1 13  1  0
  1 14  1  0
  3 15  1  0
  3 16  1  0
  4 17  1  0
  5 18  1  0
  5 19  1  0
  6 20  1  0
  6 21  1  0
  8 22  1  0
  9 23  1  0
  9 24  1  0
 10 25  1  0
M  END
>  <partial_charges>  (613) 
-0.0653000026941
-0.108300000429
-0.22159999609
-0.0296999998391
0.054999999702
-0.0719000026584
-0.0370000004768
-0.214699998498
-0.0979000031948
-0.0555000007153
0.564700007439
-0.527000010014
0.0430000014603
0.0430000014603
0.0430000014603
0.113899998367
0.113899998367
0.0476000010967
0.0476000010967
0.0619999989867
0.0619999989867
0.12349999696
0.0601999983191
0.0601999983191
-0.0104999998584

>  <partial_bond_orders>  (613) 
1.0
2.0
1.0
1.0
1.0
1.0
1.0
1.0
2.0
1.0
1.0
2.0
1.0
1.0
1.0
1.0
1.0
1.0
1.0
1.0
1.0
1.0
1.0
1.0
1.0

>  <atom_types>  (613) 
c3
c2
c2
c3
hc
c3
c3
ce
c2
c3
c
o
hc
hc
hc
ha
ha
hc
hc
hc
hc
ha
hc
hc
h4

>  <target>  (613) 
-4.09

>  <cal>  (613) 
-3.591

$$$$
mobley_8514745
     RDKit          3D

 23 22  0  0  0  0  0  0  0  0999 V2000
    0.7900   -0.3890    0.6490 C   0  0  0  0  0  0  0  0  0  0  0  0
    1.6170   -1.4420   -0.0700 C   0  0  0  0  0  0  0  0  0  0  0  0
    2.2940   -0.8690   -1.3150 C   0  0  0  0  0  0  0  0  0  0  0  0
    3.1240   -1.9290   -2.0350 C   0  0  0  0  0  0  0  0  0  0  0  0
    3.8010   -1.3660   -3.2760 C   0  0  0  0  0  0  0  0  0  0  0  0
    4.5540   -2.3990   -3.8970 O   0  0  0  0  0  0  0  0  0  0  0  0
    5.2260   -2.0450   -5.0340 C   0  0  0  0  0  0  0  0  0  0  0  0
    5.2330   -0.9360   -5.5510 O   0  0  0  0  0  0  0  0  0  0  0  0
    5.9720   -3.2270   -5.5750 C   0  0  0  0  0  0  0  0  0  0  0  0
    0.0000    0.0000    0.0000 H   0  0  0  0  0  0  0  0  0  0  0  0
    0.0000    0.0000    0.0000 H   0  0  0  0  0  0  0  0  0  0  0  0
    0.0000    0.0000    0.0000 H   0  0  0  0  0  0  0  0  0  0  0  0
    0.0000    0.0000    0.0000 H   0  0  0  0  0  0  0  0  0  0  0  0
    0.0000    0.0000    0.0000 H   0  0  0  0  0  0  0  0  0  0  0  0
    0.0000    0.0000    0.0000 H   0  0  0  0  0  0  0  0  0  0  0  0
    0.0000    0.0000    0.0000 H   0  0  0  0  0  0  0  0  0  0  0  0
    0.0000    0.0000    0.0000 H   0  0  0  0  0  0  0  0  0  0  0  0
    0.0000    0.0000    0.0000 H   0  0  0  0  0  0  0  0  0  0  0  0
    0.0000    0.0000    0.0000 H   0  0  0  0  0  0  0  0  0  0  0  0
    0.0000    0.0000    0.0000 H   0  0  0  0  0  0  0  0  0  0  0  0
    0.0000    0.0000    0.0000 H   0  0  0  0  0  0  0  0  0  0  0  0
    0.0000    0.0000    0.0000 H   0  0  0  0  0  0  0  0  0  0  0  0
    0.0000    0.0000    0.0000 H   0  0  0  0  0  0  0  0  0  0  0  0
  1  2  1  0
  2  3  1  0
  3  4  1  0
  4  5  1  0
  5  6  1  0
  6  7  1  0
  7  8  2  0
  7  9  1  0
  1 10  1  0
  1 11  1  0
  1 12  1  0
  2 13  1  0
  2 14  1  0
  3 15  1  0
  3 16  1  0
  4 17  1  0
  4 18  1  0
  5 19  1  0
  5 20  1  0
  9 21  1  0
  9 22  1  0
  9 23  1  0
M  END
>  <partial_charges>  (614) 
-0.0925000011921
-0.0822999998927
-0.0724999979138
-0.106600001454
0.137299999595
-0.459600001574
0.638199985027
-0.527100026608
-0.156100004911
0.0344999991357
0.0344999991357
0.0344999991357
0.0370999984443
0.0370999984443
0.0427000001073
0.0427000001073
0.0480999983847
0.0480999983847
0.0681999996305
0.0681999996305
0.0750999972224
0.0750999972224
0.0750999972224

>  <partial_bond_orders>  (614) 
1.0
1.0
1.0
1.0
1.0
1.0
2.0
1.0
1.0
1.0
1.0
1.0
1.0
1.0
1.0
1.0
1.0
1.0
1.0
1.0
1.0
1.0

>  <atom_types>  (614) 
c3
c3
c3
c3
c3
os
c
o
c3
hc
hc
hc
hc
hc
hc
hc
hc
hc
h1
h1
hc
hc
hc

>  <target>  (614) 
-2.51

>  <cal>  (614) 
-2.565

$$$$
mobley_313406
     RDKit          3D

 12 11  0  0  0  0  0  0  0  0999 V2000
   -0.0040   -0.6640    0.8700 C   0  0  0  0  0  0  0  0  0  0  0  0
    1.2440   -0.4430    1.7060 C   0  0  0  0  0  0  0  0  0  0  0  0
    1.2750   -1.3490    2.9270 C   0  0  0  0  0  0  0  0  0  0  0  0
    2.4640   -1.0910    3.6610 O   0  0  0  0  0  0  0  0  0  0  0  0
    0.0000    0.0000    0.0000 H   0  0  0  0  0  0  0  0  0  0  0  0
    0.0000    0.0000    0.0000 H   0  0  0  0  0  0  0  0  0  0  0  0
    0.0000    0.0000    0.0000 H   0  0  0  0  0  0  0  0  0  0  0  0
    0.0000    0.0000    0.0000 H   0  0  0  0  0  0  0  0  0  0  0  0
    0.0000    0.0000    0.0000 H   0  0  0  0  0  0  0  0  0  0  0  0
    0.0000    0.0000    0.0000 H   0  0  0  0  0  0  0  0  0  0  0  0
    0.0000    0.0000    0.0000 H   0  0  0  0  0  0  0  0  0  0  0  0
    0.0000    0.0000    0.0000 H   0  0  0  0  0  0  0  0  0  0  0  0
  1  2  1  0
  2  3  1  0
  3  4  1  0
  1  5  1  0
  1  6  1  0
  1  7  1  0
  2  8  1  0
  2  9  1  0
  3 10  1  0
  3 11  1  0
  4 12  1  0
M  END
>  <partial_charges>  (615) 
-0.0927999988198
-0.0866999998689
0.132300004363
-0.603100001812
0.0348999984562
0.0348999984562
0.0348999984562
0.0538000017405
0.0538000017405
0.0197999998927
0.0197999998927
0.39849999547

>  <partial_bond_orders>  (615) 
1.0
1.0
1.0
1.0
1.0
1.0
1.0
1.0
1.0
1.0
1.0

>  <atom_types>  (615) 
c3
c3
c3
oh
hc
hc
hc
hc
hc
h1
h1
ho

>  <target>  (615) 
-4.85

>  <cal>  (615) 
-3.33

$$$$
mobley_3060426
     RDKit          3D

 29 28  0  0  0  0  0  0  0  0999 V2000
   -1.5590    0.4170   -2.4230 C   0  0  0  0  0  0  0  0  0  0  0  0
   -1.8920    0.6650   -0.9510 C   0  0  0  0  0  0  0  0  0  0  0  0
   -2.6230    2.0020   -0.8060 C   0  0  0  0  0  0  0  0  0  0  0  0
   -0.6390    0.6550   -0.0510 C   0  0  0  0  0  0  0  0  0  0  0  0
    0.1240   -0.6780   -0.0900 C   0  0  0  0  0  0  0  0  0  0  0  0
    1.3970   -0.7500    0.7970 C   0  0  0  0  0  0  0  0  0  0  0  0
    1.0570   -0.5230    2.2790 C   0  0  0  0  0  0  0  0  0  0  0  0
    2.3640    0.3610    0.3400 C   0  0  0  0  0  0  0  0  0  0  0  0
    2.1090   -2.1050    0.6420 C   0  0  0  0  0  0  0  0  0  0  0  0
    0.0000    0.0000    0.0000 H   0  0  0  0  0  0  0  0  0  0  0  0
    0.0000    0.0000    0.0000 H   0  0  0  0  0  0  0  0  0  0  0  0
    0.0000    0.0000    0.0000 H   0  0  0  0  0  0  0  0  0  0  0  0
    0.0000    0.0000    0.0000 H   0  0  0  0  0  0  0  0  0  0  0  0
    0.0000    0.0000    0.0000 H   0  0  0  0  0  0  0  0  0  0  0  0
    0.0000    0.0000    0.0000 H   0  0  0  0  0  0  0  0  0  0  0  0
    0.0000    0.0000    0.0000 H   0  0  0  0  0  0  0  0  0  0  0  0
    0.0000    0.0000    0.0000 H   0  0  0  0  0  0  0  0  0  0  0  0
    0.0000    0.0000    0.0000 H   0  0  0  0  0  0  0  0  0  0  0  0
    0.0000    0.0000    0.0000 H   0  0  0  0  0  0  0  0  0  0  0  0
    0.0000    0.0000    0.0000 H   0  0  0  0  0  0  0  0  0  0  0  0
    0.0000    0.0000    0.0000 H   0  0  0  0  0  0  0  0  0  0  0  0
    0.0000    0.0000    0.0000 H   0  0  0  0  0  0  0  0  0  0  0  0
    0.0000    0.0000    0.0000 H   0  0  0  0  0  0  0  0  0  0  0  0
    0.0000    0.0000    0.0000 H   0  0  0  0  0  0  0  0  0  0  0  0
    0.0000    0.0000    0.0000 H   0  0  0  0  0  0  0  0  0  0  0  0
    0.0000    0.0000    0.0000 H   0  0  0  0  0  0  0  0  0  0  0  0
    0.0000    0.0000    0.0000 H   0  0  0  0  0  0  0  0  0  0  0  0
    0.0000    0.0000    0.0000 H   0  0  0  0  0  0  0  0  0  0  0  0
    0.0000    0.0000    0.0000 H   0  0  0  0  0  0  0  0  0  0  0  0
  1  2  1  0
  2  3  1  0
  2  4  1  0
  4  5  1  0
  5  6  1  0
  6  7  1  0
  6  8  1  0
  6  9  1  0
  1 10  1  0
  1 11  1  0
  1 12  1  0
  2 13  1  0
  3 14  1  0
  3 15  1  0
  3 16  1  0
  4 17  1  0
  4 18  1  0
  5 19  1  0
  5 20  1  0
  7 21  1  0
  7 22  1  0
  7 23  1  0
  8 24  1  0
  8 25  1  0
  8 26  1  0
  9 27  1  0
  9 28  1  0
  9 29  1  0
M  END
>  <partial_charges>  (616) 
-0.089500002563
-0.0665000006557
-0.089500002563
-0.0755999982357
-0.0671999976039
-0.0548000000417
-0.0864000022411
-0.0864000022411
-0.0864000022411
0.033100001514
0.033100001514
0.033100001514
0.0438000001013
0.033100001514
0.033100001514
0.033100001514
0.0397000014782
0.0397000014782
0.0392000004649
0.0392000004649
0.0335000008345
0.0335000008345
0.0335000008345
0.0335000008345
0.0335000008345
0.0335000008345
0.0335000008345
0.0335000008345
0.0335000008345

>  <partial_bond_orders>  (616) 
1.0
1.0
1.0
1.0
1.0
1.0
1.0
1.0
1.0
1.0
1.0
1.0
1.0
1.0
1.0
1.0
1.0
1.0
1.0
1.0
1.0
1.0
1.0
1.0
1.0
1.0
1.0
1.0

>  <atom_types>  (616) 
c3
c3
c3
c3
c3
c3
c3
c3
c3
hc
hc
hc
hc
hc
hc
hc
hc
hc
hc
hc
hc
hc
hc
hc
hc
hc
hc
hc
hc

>  <target>  (616) 
2.93

>  <cal>  (616) 
2.97

$$$$
mobley_1855337
     RDKit          3D

 12 12  0  0  0  0  0  0  0  0999 V2000
    1.8850   -1.0360   -0.1120 C   0  0  0  0  0  0  0  0  0  0  0  0
    2.9210   -1.6310    0.6080 C   0  0  0  0  0  0  0  0  0  0  0  0
    2.8780   -1.6520    2.0020 C   0  0  0  0  0  0  0  0  0  0  0  0
    1.8000   -1.0790    2.6760 C   0  0  0  0  0  0  0  0  0  0  0  0
    0.7640   -0.4840    1.9550 C   0  0  0  0  0  0  0  0  0  0  0  0
    0.8070   -0.4630    0.5610 C   0  0  0  0  0  0  0  0  0  0  0  0
   -0.4410    0.2560   -0.4000 Cl  0  0  0  0  0  0  0  0  0  0  0  0
   -0.5810    0.2290    2.7940 Cl  0  0  0  0  0  0  0  0  0  0  0  0
    1.8170   -1.1430    4.4050 Cl  0  0  0  0  0  0  0  0  0  0  0  0
    4.2520   -2.3390   -0.2230 Cl  0  0  0  0  0  0  0  0  0  0  0  0
    0.0000    0.0000    0.0000 H   0  0  0  0  0  0  0  0  0  0  0  0
    0.0000    0.0000    0.0000 H   0  0  0  0  0  0  0  0  0  0  0  0
  1  6  2  0
  1  2  1  0
  2  3  2  0
  3  4  1  0
  4  5  2  0
  5  6  1  0
  6  7  1  0
  5  8  1  0
  4  9  1  0
  2 10  1  0
  1 11  1  0
  3 12  1  0
M  END
>  <partial_charges>  (617) 
-0.11630000174
0.0298999994993
-0.11630000174
0.0305000003427
0.0143999997526
0.0305000003427
-0.0526000000536
-0.0373000018299
-0.0526000000536
-0.0668999999762
0.168400004506
0.168400004506

>  <partial_bond_orders>  (617) 
2.0
1.0
2.0
1.0
2.0
1.0
1.0
1.0
1.0
1.0
1.0
1.0

>  <atom_types>  (617) 
ca
ca
ca
ca
ca
ca
cl
cl
cl
cl
ha
ha

>  <target>  (617) 
-1.62

>  <cal>  (617) 
0.136

$$$$
mobley_2763835
     RDKit          3D

 19 19  0  0  0  0  0  0  0  0999 V2000
    0.8500   -1.7230   -3.4870 C   0  0  0  0  0  0  0  0  0  0  0  0
    0.6770   -1.0300   -2.1520 C   0  0  0  0  0  0  0  0  0  0  0  0
    1.9270   -1.0160   -1.4730 O   0  0  0  0  0  0  0  0  0  0  0  0
    1.8850   -1.0360   -0.1120 C   0  0  0  0  0  0  0  0  0  0  0  0
    2.9210   -1.6310    0.6080 C   0  0  0  0  0  0  0  0  0  0  0  0
    2.8780   -1.6520    2.0020 C   0  0  0  0  0  0  0  0  0  0  0  0
    1.8000   -1.0790    2.6760 C   0  0  0  0  0  0  0  0  0  0  0  0
    0.7640   -0.4840    1.9550 C   0  0  0  0  0  0  0  0  0  0  0  0
    0.8070   -0.4630    0.5610 C   0  0  0  0  0  0  0  0  0  0  0  0
    0.0000    0.0000    0.0000 H   0  0  0  0  0  0  0  0  0  0  0  0
    0.0000    0.0000    0.0000 H   0  0  0  0  0  0  0  0  0  0  0  0
    0.0000    0.0000    0.0000 H   0  0  0  0  0  0  0  0  0  0  0  0
    0.0000    0.0000    0.0000 H   0  0  0  0  0  0  0  0  0  0  0  0
    0.0000    0.0000    0.0000 H   0  0  0  0  0  0  0  0  0  0  0  0
    0.0000    0.0000    0.0000 H   0  0  0  0  0  0  0  0  0  0  0  0
    0.0000    0.0000    0.0000 H   0  0  0  0  0  0  0  0  0  0  0  0
    0.0000    0.0000    0.0000 H   0  0  0  0  0  0  0  0  0  0  0  0
    0.0000    0.0000    0.0000 H   0  0  0  0  0  0  0  0  0  0  0  0
    0.0000    0.0000    0.0000 H   0  0  0  0  0  0  0  0  0  0  0  0
  1  2  1  0
  2  3  1  0
  3  4  1  0
  4  9  2  0
  4  5  1  0
  5  6  2  0
  6  7  1  0
  7  8  2  0
  8  9  1  0
  1 10  1  0
  1 11  1  0
  1 12  1  0
  2 13  1  0
  2 14  1  0
  5 15  1  0
  6 16  1  0
  7 17  1  0
  8 18  1  0
  9 19  1  0
M  END
>  <partial_charges>  (618) 
-0.103699997067
0.126100003719
-0.334100008011
0.119599997997
-0.173600003123
-0.102799996734
-0.159199997783
-0.102799996734
-0.173600003123
0.0478999987245
0.0478999987245
0.0478999987245
0.0401999987662
0.0401999987662
0.141599997878
0.13220000267
0.132300004363
0.13220000267
0.141599997878

>  <partial_bond_orders>  (618) 
1.0
1.0
1.0
2.0
1.0
2.0
1.0
2.0
1.0
1.0
1.0
1.0
1.0
1.0
1.0
1.0
1.0
1.0
1.0

>  <atom_types>  (618) 
c3
c3
os
ca
ca
ca
ca
ca
ca
hc
hc
hc
h1
h1
ha
ha
ha
ha
ha

>  <target>  (618) 
-2.22

>  <cal>  (618) 
-2.254

$$$$
mobley_7463799
     RDKit          3D

 22 22  0  0  0  0  0  0  0  0999 V2000
    1.8850   -1.0360   -0.1120 C   0  0  0  0  0  0  0  0  0  0  0  0
    2.9210   -1.6310    0.6080 C   0  0  0  0  0  0  0  0  0  0  0  0
    2.8780   -1.6520    2.0020 C   0  0  0  0  0  0  0  0  0  0  0  0
    1.8000   -1.0790    2.6760 C   0  0  0  0  0  0  0  0  0  0  0  0
    0.7640   -0.4840    1.9550 C   0  0  0  0  0  0  0  0  0  0  0  0
    0.8070   -0.4630    0.5610 C   0  0  0  0  0  0  0  0  0  0  0  0
    1.7550   -1.1010    4.1660 C   0  0  0  0  0  0  0  0  0  0  0  0
    1.0510   -2.3550    4.7040 C   0  0  0  0  0  0  0  0  0  0  0  0
    1.0040   -2.3800    6.2250 C   0  0  0  0  0  0  0  0  0  0  0  0
    0.3410   -3.5640    6.6450 O   0  0  0  0  0  0  0  0  0  0  0  0
    0.0000    0.0000    0.0000 H   0  0  0  0  0  0  0  0  0  0  0  0
    0.0000    0.0000    0.0000 H   0  0  0  0  0  0  0  0  0  0  0  0
    0.0000    0.0000    0.0000 H   0  0  0  0  0  0  0  0  0  0  0  0
    0.0000    0.0000    0.0000 H   0  0  0  0  0  0  0  0  0  0  0  0
    0.0000    0.0000    0.0000 H   0  0  0  0  0  0  0  0  0  0  0  0
    0.0000    0.0000    0.0000 H   0  0  0  0  0  0  0  0  0  0  0  0
    0.0000    0.0000    0.0000 H   0  0  0  0  0  0  0  0  0  0  0  0
    0.0000    0.0000    0.0000 H   0  0  0  0  0  0  0  0  0  0  0  0
    0.0000    0.0000    0.0000 H   0  0  0  0  0  0  0  0  0  0  0  0
    0.0000    0.0000    0.0000 H   0  0  0  0  0  0  0  0  0  0  0  0
    0.0000    0.0000    0.0000 H   0  0  0  0  0  0  0  0  0  0  0  0
    0.0000    0.0000    0.0000 H   0  0  0  0  0  0  0  0  0  0  0  0
  1  6  2  0
  1  2  1  0
  2  3  2  0
  3  4  1  0
  4  5  2  0
  5  6  1  0
  4  7  1  0
  7  8  1  0
  8  9  1  0
  9 10  1  0
  1 11  1  0
  2 12  1  0
  3 13  1  0
  5 14  1  0
  6 15  1  0
  7 16  1  0
  7 17  1  0
  8 18  1  0
  8 19  1  0
  9 20  1  0
  9 21  1  0
 10 22  1  0
M  END
>  <partial_charges>  (619) 
-0.131500005722
-0.128199994564
-0.126200005412
-0.0782999992371
-0.126200005412
-0.128199994564
-0.035000000149
-0.0816000029445
0.131699994206
-0.60119998455
0.13030000031
0.130899995565
0.130500003695
0.130500003695
0.130899995565
0.0463999994099
0.0463999994099
0.0599999986589
0.0599999986589
0.0200999993831
0.0200999993831
0.398600012064

>  <partial_bond_orders>  (619) 
2.0
1.0
2.0
1.0
2.0
1.0
1.0
1.0
1.0
1.0
1.0
1.0
1.0
1.0
1.0
1.0
1.0
1.0
1.0
1.0
1.0
1.0

>  <atom_types>  (619) 
ca
ca
ca
ca
ca
ca
c3
c3
c3
oh
ha
ha
ha
ha
ha
hc
hc
hc
hc
h1
h1
ho

>  <target>  (619) 
-6.92

>  <cal>  (619) 
-5.771

$$$$
mobley_5690766
     RDKit          3D

 16 15  0  0  0  0  0  0  0  0999 V2000
    0.2550    2.2260   -0.7980 C   0  0  0  0  0  0  0  0  0  0  0  0
   -0.0750    1.5330    0.2970 C   0  0  0  0  0  0  0  0  0  0  0  0
    0.6010    1.6950    1.6290 C   0  0  0  0  0  0  0  0  0  0  0  0
   -0.3670    2.1320    2.7330 C   0  0  0  0  0  0  0  0  0  0  0  0
   -1.0260    3.4490    2.4380 C   0  0  0  0  0  0  0  0  0  0  0  0
   -2.3480    3.6150    2.3220 C   0  0  0  0  0  0  0  0  0  0  0  0
    0.0000    0.0000    0.0000 H   0  0  0  0  0  0  0  0  0  0  0  0
    0.0000    0.0000    0.0000 H   0  0  0  0  0  0  0  0  0  0  0  0
    0.0000    0.0000    0.0000 H   0  0  0  0  0  0  0  0  0  0  0  0
    0.0000    0.0000    0.0000 H   0  0  0  0  0  0  0  0  0  0  0  0
    0.0000    0.0000    0.0000 H   0  0  0  0  0  0  0  0  0  0  0  0
    0.0000    0.0000    0.0000 H   0  0  0  0  0  0  0  0  0  0  0  0
    0.0000    0.0000    0.0000 H   0  0  0  0  0  0  0  0  0  0  0  0
    0.0000    0.0000    0.0000 H   0  0  0  0  0  0  0  0  0  0  0  0
    0.0000    0.0000    0.0000 H   0  0  0  0  0  0  0  0  0  0  0  0
    0.0000    0.0000    0.0000 H   0  0  0  0  0  0  0  0  0  0  0  0
  1  2  2  3
  2  3  1  0
  3  4  1  0
  4  5  1  0
  5  6  2  3
  1  7  1  0
  1  8  1  0
  2  9  1  0
  3 10  1  0
  3 11  1  0
  4 12  1  0
  4 13  1  0
  5 14  1  0
  6 15  1  0
  6 16  1  0
M  END
>  <partial_charges>  (620) 
-0.222299993038
-0.163800001144
-0.0502999983728
-0.0502999983728
-0.163800001144
-0.222200006247
0.111100003123
0.111100003123
0.118699997663
0.0476999990642
0.0476999990642
0.0476999990642
0.0476999990642
0.118699997663
0.111100003123
0.111100003123

>  <partial_bond_orders>  (620) 
2.0
1.0
1.0
1.0
2.0
1.0
1.0
1.0
1.0
1.0
1.0
1.0
1.0
1.0
1.0

>  <atom_types>  (620) 
c2
c2
c3
c3
c2
c2
ha
ha
ha
hc
hc
hc
hc
ha
ha
ha

>  <target>  (620) 
1.01

>  <cal>  (620) 
2.487

$$$$
mobley_550662
     RDKit          3D

 20 19  0  0  0  0  0  0  0  0999 V2000
    0.1450    0.0970    1.0820 C   0  0  0  0  0  0  0  0  0  0  0  0
    1.2770   -0.8260    1.5630 C   0  0  0  0  0  0  0  0  0  0  0  0
    0.7480   -2.1650    1.4380 O   0  0  0  0  0  0  0  0  0  0  0  0
    1.6590   -3.1800    1.8410 C   0  0  0  0  0  0  0  0  0  0  0  0
    1.6620   -0.5240    2.9160 O   0  0  0  0  0  0  0  0  0  0  0  0
    0.6380   -0.6530    3.8920 C   0  0  0  0  0  0  0  0  0  0  0  0
    2.4000   -0.6800    0.6660 O   0  0  0  0  0  0  0  0  0  0  0  0
    3.2140    0.4630    0.8890 C   0  0  0  0  0  0  0  0  0  0  0  0
    0.0000    0.0000    0.0000 H   0  0  0  0  0  0  0  0  0  0  0  0
    0.0000    0.0000    0.0000 H   0  0  0  0  0  0  0  0  0  0  0  0
    0.0000    0.0000    0.0000 H   0  0  0  0  0  0  0  0  0  0  0  0
    0.0000    0.0000    0.0000 H   0  0  0  0  0  0  0  0  0  0  0  0
    0.0000    0.0000    0.0000 H   0  0  0  0  0  0  0  0  0  0  0  0
    0.0000    0.0000    0.0000 H   0  0  0  0  0  0  0  0  0  0  0  0
    0.0000    0.0000    0.0000 H   0  0  0  0  0  0  0  0  0  0  0  0
    0.0000    0.0000    0.0000 H   0  0  0  0  0  0  0  0  0  0  0  0
    0.0000    0.0000    0.0000 H   0  0  0  0  0  0  0  0  0  0  0  0
    0.0000    0.0000    0.0000 H   0  0  0  0  0  0  0  0  0  0  0  0
    0.0000    0.0000    0.0000 H   0  0  0  0  0  0  0  0  0  0  0  0
    0.0000    0.0000    0.0000 H   0  0  0  0  0  0  0  0  0  0  0  0
  1  2  1  0
  2  3  1  0
  3  4  1  0
  2  5  1  0
  5  6  1  0
  2  7  1  0
  7  8  1  0
  1  9  1  0
  1 10  1  0
  1 11  1  0
  4 12  1  0
  4 13  1  0
  4 14  1  0
  6 15  1  0
  6 16  1  0
  6 17  1  0
  8 18  1  0
  8 19  1  0
  8 20  1  0
M  END
>  <partial_charges>  (621) 
-0.112599998713
0.524999976158
-0.45039999485
0.13369999826
-0.45039999485
0.13369999826
-0.45039999485
0.13369999826
0.0610999986529
0.0610999986529
0.0610999986529
0.0394000001252
0.0394000001252
0.0394000001252
0.0394000001252
0.0394000001252
0.0394000001252
0.0394000001252
0.0394000001252
0.0394000001252

>  <partial_bond_orders>  (621) 
1.0
1.0
1.0
1.0
1.0
1.0
1.0
1.0
1.0
1.0
1.0
1.0
1.0
1.0
1.0
1.0
1.0
1.0
1.0

>  <atom_types>  (621) 
c3
c3
os
c3
os
c3
os
c3
hc
hc
hc
h1
h1
h1
h1
h1
h1
h1
h1
h1

>  <target>  (621) 
-4.42

>  <cal>  (621) 
-3.7

$$$$
mobley_4219614
     RDKit          3D

 12 12  0  0  0  0  0  0  0  0999 V2000
    1.8850   -1.0360   -0.1120 C   0  0  0  0  0  0  0  0  0  0  0  0
    2.9210   -1.6310    0.6080 C   0  0  0  0  0  0  0  0  0  0  0  0
    2.8780   -1.6520    2.0020 C   0  0  0  0  0  0  0  0  0  0  0  0
    1.8000   -1.0790    2.6760 C   0  0  0  0  0  0  0  0  0  0  0  0
    0.7640   -0.4840    1.9550 C   0  0  0  0  0  0  0  0  0  0  0  0
    0.8070   -0.4630    0.5610 C   0  0  0  0  0  0  0  0  0  0  0  0
   -0.4390    0.2550   -0.4030 Cl  0  0  0  0  0  0  0  0  0  0  0  0
   -0.5860    0.2360    2.7840 Cl  0  0  0  0  0  0  0  0  0  0  0  0
    1.7590   -1.1110    4.4150 Cl  0  0  0  0  0  0  0  0  0  0  0  0
    4.2000   -2.4090    2.8240 Cl  0  0  0  0  0  0  0  0  0  0  0  0
    0.0000    0.0000    0.0000 H   0  0  0  0  0  0  0  0  0  0  0  0
    0.0000    0.0000    0.0000 H   0  0  0  0  0  0  0  0  0  0  0  0
  1  6  2  0
  1  2  1  0
  2  3  2  0
  3  4  1  0
  4  5  2  0
  5  6  1  0
  6  7  1  0
  5  8  1  0
  4  9  1  0
  3 10  1  0
  1 11  1  0
  2 12  1  0
M  END
>  <partial_charges>  (622) 
-0.111100003123
-0.111000001431
0.0220999997109
0.0226000007242
0.0226000007242
0.0220999997109
-0.0546000003815
-0.0384000018239
-0.0384000018239
-0.0546000003815
0.159299999475
0.159299999475

>  <partial_bond_orders>  (622) 
2.0
1.0
2.0
1.0
2.0
1.0
1.0
1.0
1.0
1.0
1.0
1.0

>  <atom_types>  (622) 
ca
ca
ca
ca
ca
ca
cl
cl
cl
cl
ha
ha

>  <target>  (622) 
-1.34

>  <cal>  (622) 
-0.304

$$$$
mobley_1139153
     RDKit          3D

 26 25  0  0  0  0  0  0  0  0999 V2000
   -0.6300   -2.1340    0.1130 C   0  0  0  0  0  0  0  0  0  0  0  0
   -0.4500   -1.0210   -0.9260 C   0  0  0  0  0  0  0  0  0  0  0  0
   -1.4620   -1.2350   -2.0560 C   0  0  0  0  0  0  0  0  0  0  0  0
   -0.6220    0.3620   -0.2550 C   0  0  0  0  0  0  0  0  0  0  0  0
    0.3630    0.7140    0.8970 C   0  0  0  0  0  0  0  0  0  0  0  0
    1.7190    0.0160    0.6860 C   0  0  0  0  0  0  0  0  0  0  0  0
    0.5900    2.2250    1.0330 C   0  0  0  0  0  0  0  0  0  0  0  0
   -0.2430    0.1940    2.2170 C   0  0  0  0  0  0  0  0  0  0  0  0
    0.0000    0.0000    0.0000 H   0  0  0  0  0  0  0  0  0  0  0  0
    0.0000    0.0000    0.0000 H   0  0  0  0  0  0  0  0  0  0  0  0
    0.0000    0.0000    0.0000 H   0  0  0  0  0  0  0  0  0  0  0  0
    0.0000    0.0000    0.0000 H   0  0  0  0  0  0  0  0  0  0  0  0
    0.0000    0.0000    0.0000 H   0  0  0  0  0  0  0  0  0  0  0  0
    0.0000    0.0000    0.0000 H   0  0  0  0  0  0  0  0  0  0  0  0
    0.0000    0.0000    0.0000 H   0  0  0  0  0  0  0  0  0  0  0  0
    0.0000    0.0000    0.0000 H   0  0  0  0  0  0  0  0  0  0  0  0
    0.0000    0.0000    0.0000 H   0  0  0  0  0  0  0  0  0  0  0  0
    0.0000    0.0000    0.0000 H   0  0  0  0  0  0  0  0  0  0  0  0
    0.0000    0.0000    0.0000 H   0  0  0  0  0  0  0  0  0  0  0  0
    0.0000    0.0000    0.0000 H   0  0  0  0  0  0  0  0  0  0  0  0
    0.0000    0.0000    0.0000 H   0  0  0  0  0  0  0  0  0  0  0  0
    0.0000    0.0000    0.0000 H   0  0  0  0  0  0  0  0  0  0  0  0
    0.0000    0.0000    0.0000 H   0  0  0  0  0  0  0  0  0  0  0  0
    0.0000    0.0000    0.0000 H   0  0  0  0  0  0  0  0  0  0  0  0
    0.0000    0.0000    0.0000 H   0  0  0  0  0  0  0  0  0  0  0  0
    0.0000    0.0000    0.0000 H   0  0  0  0  0  0  0  0  0  0  0  0
  1  2  1  0
  2  3  1  0
  2  4  1  0
  4  5  1  0
  5  6  1  0
  5  7  1  0
  5  8  1  0
  1  9  1  0
  1 10  1  0
  1 11  1  0
  2 12  1  0
  3 13  1  0
  3 14  1  0
  3 15  1  0
  4 16  1  0
  4 17  1  0
  6 18  1  0
  6 19  1  0
  6 20  1  0
  7 21  1  0
  7 22  1  0
  7 23  1  0
  8 24  1  0
  8 25  1  0
  8 26  1  0
M  END
>  <partial_charges>  (623) 
-0.0909999981523
-0.0644999966025
-0.0909999981523
-0.0646999999881
-0.0496000014246
-0.0879999995232
-0.0879999995232
-0.0879999995232
0.0333000011742
0.0333000011742
0.0333000011742
0.0458999983966
0.0333000011742
0.0333000011742
0.0333000011742
0.0383000001311
0.0383000001311
0.0335999988019
0.0335999988019
0.0335999988019
0.0335999988019
0.0335999988019
0.0335999988019
0.0335999988019
0.0335999988019
0.0335999988019

>  <partial_bond_orders>  (623) 
1.0
1.0
1.0
1.0
1.0
1.0
1.0
1.0
1.0
1.0
1.0
1.0
1.0
1.0
1.0
1.0
1.0
1.0
1.0
1.0
1.0
1.0
1.0
1.0
1.0

>  <atom_types>  (623) 
c3
c3
c3
c3
c3
c3
c3
c3
hc
hc
hc
hc
hc
hc
hc
hc
hc
hc
hc
hc
hc
hc
hc
hc
hc
hc

>  <target>  (623) 
2.89

>  <cal>  (623) 
2.542

$$$$
mobley_2802855
     RDKit          3D

 14 13  0  0  0  0  0  0  0  0999 V2000
    1.9690   -0.0150   -0.1760 C   0  0  0  0  0  0  0  0  0  0  0  0
    0.6150    0.3980    0.3790 C   0  0  0  0  0  0  0  0  0  0  0  0
   -0.5260   -0.3380   -0.3230 C   0  0  0  0  0  0  0  0  0  0  0  0
   -1.8730    0.0830    0.2400 C   0  0  0  0  0  0  0  0  0  0  0  0
   -3.2990   -0.8740   -0.6780 Br  0  0  0  0  0  0  0  0  0  0  0  0
    0.0000    0.0000    0.0000 H   0  0  0  0  0  0  0  0  0  0  0  0
    0.0000    0.0000    0.0000 H   0  0  0  0  0  0  0  0  0  0  0  0
    0.0000    0.0000    0.0000 H   0  0  0  0  0  0  0  0  0  0  0  0
    0.0000    0.0000    0.0000 H   0  0  0  0  0  0  0  0  0  0  0  0
    0.0000    0.0000    0.0000 H   0  0  0  0  0  0  0  0  0  0  0  0
    0.0000    0.0000    0.0000 H   0  0  0  0  0  0  0  0  0  0  0  0
    0.0000    0.0000    0.0000 H   0  0  0  0  0  0  0  0  0  0  0  0
    0.0000    0.0000    0.0000 H   0  0  0  0  0  0  0  0  0  0  0  0
    0.0000    0.0000    0.0000 H   0  0  0  0  0  0  0  0  0  0  0  0
  1  2  1  0
  2  3  1  0
  3  4  1  0
  4  5  1  0
  1  6  1  0
  1  7  1  0
  1  8  1  0
  2  9  1  0
  2 10  1  0
  3 11  1  0
  3 12  1  0
  4 13  1  0
  4 14  1  0
M  END
>  <partial_charges>  (624) 
-0.0929000005126
-0.0813999995589
-0.0816999971867
-0.0077999997884
-0.18029999733
0.0359000004828
0.0359000004828
0.0359000004828
0.040600001812
0.040600001812
0.0560000017285
0.0560000017285
0.0715999975801
0.0715999975801

>  <partial_bond_orders>  (624) 
1.0
1.0
1.0
1.0
1.0
1.0
1.0
1.0
1.0
1.0
1.0
1.0
1.0

>  <atom_types>  (624) 
c3
c3
c3
c3
br
hc
hc
hc
hc
hc
hc
hc
h1
h1

>  <target>  (624) 
-0.4

>  <cal>  (624) 
0.705

$$$$
mobley_4371692
     RDKit          3D

 27 29  0  0  0  0  0  0  0  0999 V2000
    1.2900   -1.6870   -0.3520 C   0  0  0  0  0  0  0  0  0  0  0  0
    0.9560   -0.4630    0.2260 C   0  0  0  0  0  0  0  0  0  0  0  0
    1.8480    0.1680    1.0930 C   0  0  0  0  0  0  0  0  0  0  0  0
    3.0810   -0.4280    1.3840 C   0  0  0  0  0  0  0  0  0  0  0  0
    3.4160   -1.6540    0.8060 C   0  0  0  0  0  0  0  0  0  0  0  0
    2.5180   -2.2840   -0.0640 C   0  0  0  0  0  0  0  0  0  0  0  0
    4.7130   -2.2940    1.1040 C   0  0  0  0  0  0  0  0  0  0  0  0
    4.9720   -3.3690    0.5780 O   0  0  0  0  0  0  0  0  0  0  0  0
    5.6520   -1.6180    2.0240 C   0  0  0  0  0  0  0  0  0  0  0  0
    6.8850   -2.2140    2.3150 C   0  0  0  0  0  0  0  0  0  0  0  0
    7.7770   -1.5830    3.1820 C   0  0  0  0  0  0  0  0  0  0  0  0
    7.4420   -0.3590    3.7590 C   0  0  0  0  0  0  0  0  0  0  0  0
    6.2150    0.2380    3.4720 C   0  0  0  0  0  0  0  0  0  0  0  0
    5.3170   -0.3920    2.6020 C   0  0  0  0  0  0  0  0  0  0  0  0
    4.0190    0.2480    2.3040 C   0  0  0  0  0  0  0  0  0  0  0  0
    3.7020    1.3230    2.7970 O   0  0  0  0  0  0  0  0  0  0  0  0
    5.9500    1.4350    4.0690 O   0  0  0  0  0  0  0  0  0  0  0  0
    7.2930   -3.4520    1.7680 N   0  0  0  0  0  0  0  0  0  0  0  0
    0.0000    0.0000    0.0000 H   0  0  0  0  0  0  0  0  0  0  0  0
    0.0000    0.0000    0.0000 H   0  0  0  0  0  0  0  0  0  0  0  0
    0.0000    0.0000    0.0000 H   0  0  0  0  0  0  0  0  0  0  0  0
    0.0000    0.0000    0.0000 H   0  0  0  0  0  0  0  0  0  0  0  0
    0.0000    0.0000    0.0000 H   0  0  0  0  0  0  0  0  0  0  0  0
    0.0000    0.0000    0.0000 H   0  0  0  0  0  0  0  0  0  0  0  0
    0.0000    0.0000    0.0000 H   0  0  0  0  0  0  0  0  0  0  0  0
    0.0000    0.0000    0.0000 H   0  0  0  0  0  0  0  0  0  0  0  0
    0.0000    0.0000    0.0000 H   0  0  0  0  0  0  0  0  0  0  0  0
  1  6  2  0
  1  2  1  0
  2  3  2  0
  3  4  1  0
  4 15  1  0
  4  5  2  0
  5  6  1  0
  5  7  1  0
  7  8  2  0
  7  9  1  0
  9 14  2  0
  9 10  1  0
 10 11  2  0
 11 12  1  0
 12 13  2  0
 13 14  1  0
 14 15  1  0
 15 16  2  0
 13 17  1  0
 10 18  1  0
  1 19  1  0
  2 20  1  0
  3 21  1  0
  6 22  1  0
 11 23  1  0
 12 24  1  0
 17 25  1  0
 18 26  1  0
 18 27  1  0
M  END
>  <partial_charges>  (625) 
-0.121399998665
-0.116999998689
-0.0912000015378
-0.120700001717
-0.130999997258
-0.0879999995232
0.602100014687
-0.570999979973
-0.188099995255
0.202600002289
-0.157800003886
-0.149599999189
0.114200003445
-0.115800000727
0.583000004292
-0.496800005436
-0.458600014448
-0.8424000144
0.141000002623
0.139599993825
0.158500000834
0.158600002527
0.140499994159
0.140599995852
0.413899987936
0.427500009537
0.427500009537

>  <partial_bond_orders>  (625) 
2.0
1.0
2.0
1.0
1.0
2.0
1.0
1.0
2.0
1.0
2.0
1.0
2.0
1.0
2.0
1.0
1.0
2.0
1.0
1.0
1.0
1.0
1.0
1.0
1.0
1.0
1.0
1.0
1.0

>  <atom_types>  (625) 
ca
ca
ca
ca
ca
ca
c
o
ca
ca
ca
ca
ca
ca
c
o
oh
nh
ha
ha
ha
ha
ha
ha
ho
hn
hn

>  <target>  (625) 
-9.53

>  <cal>  (625) 
-10.984

$$$$
mobley_9510785
     RDKit          3D

 22 23  0  0  0  0  0  0  0  0999 V2000
    1.8850   -1.0360   -0.1120 C   0  0  0  0  0  0  0  0  0  0  0  0
    2.9210   -1.6310    0.6080 C   0  0  0  0  0  0  0  0  0  0  0  0
    2.8780   -1.6520    2.0020 C   0  0  0  0  0  0  0  0  0  0  0  0
    1.8000   -1.0790    2.6760 C   0  0  0  0  0  0  0  0  0  0  0  0
    0.7640   -0.4840    1.9550 C   0  0  0  0  0  0  0  0  0  0  0  0
    0.8070   -0.4630    0.5610 C   0  0  0  0  0  0  0  0  0  0  0  0
    1.7550   -1.1010    4.1220 C   0  0  0  0  0  0  0  0  0  0  0  0
    1.1390   -2.1910    4.7360 C   0  0  0  0  0  0  0  0  0  0  0  0
    1.0690   -2.2610    6.1270 C   0  0  0  0  0  0  0  0  0  0  0  0
    1.6160   -1.2400    6.9040 C   0  0  0  0  0  0  0  0  0  0  0  0
    2.2320   -0.1490    6.2900 C   0  0  0  0  0  0  0  0  0  0  0  0
    2.3010   -0.0800    4.8990 C   0  0  0  0  0  0  0  0  0  0  0  0
    3.0620    1.2750    4.1120 Cl  0  0  0  0  0  0  0  0  0  0  0  0
    2.9140    1.1270    7.2600 Cl  0  0  0  0  0  0  0  0  0  0  0  0
    1.5210   -1.3400    8.6400 Cl  0  0  0  0  0  0  0  0  0  0  0  0
    0.2920   -3.6460    6.8140 Cl  0  0  0  0  0  0  0  0  0  0  0  0
    0.0000    0.0000    0.0000 H   0  0  0  0  0  0  0  0  0  0  0  0
    0.0000    0.0000    0.0000 H   0  0  0  0  0  0  0  0  0  0  0  0
    0.0000    0.0000    0.0000 H   0  0  0  0  0  0  0  0  0  0  0  0
    0.0000    0.0000    0.0000 H   0  0  0  0  0  0  0  0  0  0  0  0
    0.0000    0.0000    0.0000 H   0  0  0  0  0  0  0  0  0  0  0  0
    0.0000    0.0000    0.0000 H   0  0  0  0  0  0  0  0  0  0  0  0
  1  6  2  0
  1  2  1  0
  2  3  2  0
  3  4  1  0
  4  5  2  0
  5  6  1  0
  4  7  1  0
  7 12  1  0
  7  8  2  0
  8  9  1  0
  9 10  2  0
 10 11  1  0
 11 12  2  0
 12 13  1  0
 11 14  1  0
 10 15  1  0
  9 16  1  0
  1 17  1  0
  2 18  1  0
  3 19  1  0
  5 20  1  0
  6 21  1  0
  8 22  1  0
M  END
>  <partial_charges>  (626) 
-0.119599997997
-0.130500003695
-0.104299999774
-0.0599000006914
-0.104299999774
-0.130500003695
-0.0164000000805
-0.100900001824
0.0204000007361
0.0226000007242
0.0196000002325
0.0326999984682
-0.0452999994159
-0.0395999997854
-0.0397000014782
-0.0557000003755
0.133499994874
0.136099994183
0.140200003982
0.140200003982
0.136099994183
0.165099993348

>  <partial_bond_orders>  (626) 
2.0
1.0
2.0
1.0
2.0
1.0
1.0
2.0
1.0
2.0
1.0
2.0
1.0
1.0
1.0
1.0
1.0
1.0
1.0
1.0
1.0
1.0
1.0

>  <atom_types>  (626) 
ca
ca
ca
cp
ca
ca
cp
ca
ca
ca
ca
ca
cl
cl
cl
cl
ha
ha
ha
ha
ha
ha

>  <target>  (626) 
-3.48

>  <cal>  (626) 
-1.31

$$$$
mobley_3572203
     RDKit          3D

 26 25  0  0  0  0  0  0  0  0999 V2000
    0.7900   -0.3890    0.6490 C   0  0  0  0  0  0  0  0  0  0  0  0
    1.6170   -1.4420   -0.0700 C   0  0  0  0  0  0  0  0  0  0  0  0
    2.2940   -0.8690   -1.3150 C   0  0  0  0  0  0  0  0  0  0  0  0
    3.1240   -1.9290   -2.0350 C   0  0  0  0  0  0  0  0  0  0  0  0
    3.8010   -1.3660   -3.2760 C   0  0  0  0  0  0  0  0  0  0  0  0
    4.5540   -2.3990   -3.8970 O   0  0  0  0  0  0  0  0  0  0  0  0
    5.2280   -2.0460   -5.0370 C   0  0  0  0  0  0  0  0  0  0  0  0
    5.2290   -0.9340   -5.5460 O   0  0  0  0  0  0  0  0  0  0  0  0
    5.9730   -3.2480   -5.5680 C   0  0  0  0  0  0  0  0  0  0  0  0
    6.7460   -2.9270   -6.8350 C   0  0  0  0  0  0  0  0  0  0  0  0
    0.0000    0.0000    0.0000 H   0  0  0  0  0  0  0  0  0  0  0  0
    0.0000    0.0000    0.0000 H   0  0  0  0  0  0  0  0  0  0  0  0
    0.0000    0.0000    0.0000 H   0  0  0  0  0  0  0  0  0  0  0  0
    0.0000    0.0000    0.0000 H   0  0  0  0  0  0  0  0  0  0  0  0
    0.0000    0.0000    0.0000 H   0  0  0  0  0  0  0  0  0  0  0  0
    0.0000    0.0000    0.0000 H   0  0  0  0  0  0  0  0  0  0  0  0
    0.0000    0.0000    0.0000 H   0  0  0  0  0  0  0  0  0  0  0  0
    0.0000    0.0000    0.0000 H   0  0  0  0  0  0  0  0  0  0  0  0
    0.0000    0.0000    0.0000 H   0  0  0  0  0  0  0  0  0  0  0  0
    0.0000    0.0000    0.0000 H   0  0  0  0  0  0  0  0  0  0  0  0
    0.0000    0.0000    0.0000 H   0  0  0  0  0  0  0  0  0  0  0  0
    0.0000    0.0000    0.0000 H   0  0  0  0  0  0  0  0  0  0  0  0
    0.0000    0.0000    0.0000 H   0  0  0  0  0  0  0  0  0  0  0  0
    0.0000    0.0000    0.0000 H   0  0  0  0  0  0  0  0  0  0  0  0
    0.0000    0.0000    0.0000 H   0  0  0  0  0  0  0  0  0  0  0  0
    0.0000    0.0000    0.0000 H   0  0  0  0  0  0  0  0  0  0  0  0
  1  2  1  0
  2  3  1  0
  3  4  1  0
  4  5  1  0
  5  6  1  0
  6  7  1  0
  7  8  2  0
  7  9  1  0
  9 10  1  0
  1 11  1  0
  1 12  1  0
  1 13  1  0
  2 14  1  0
  2 15  1  0
  3 16  1  0
  3 17  1  0
  4 18  1  0
  4 19  1  0
  5 20  1  0
  5 21  1  0
  9 22  1  0
  9 23  1  0
 10 24  1  0
 10 25  1  0
 10 26  1  0
M  END
>  <partial_charges>  (627) 
-0.0922999978065
-0.0798000022769
-0.0800999999046
-0.108400002122
0.138699993491
-0.459899991751
0.63789999485
-0.521399974823
-0.136299997568
-0.0949999988079
0.0331999994814
0.0331999994814
0.0331999994814
0.0368999987841
0.0368999987841
0.0476000010967
0.0476000010967
0.0483999997377
0.0483999997377
0.0675000026822
0.0675000026822
0.0772000029683
0.0772000029683
0.0472999997437
0.0472999997437
0.0472999997437

>  <partial_bond_orders>  (627) 
1.0
1.0
1.0
1.0
1.0
1.0
2.0
1.0
1.0
1.0
1.0
1.0
1.0
1.0
1.0
1.0
1.0
1.0
1.0
1.0
1.0
1.0
1.0
1.0
1.0

>  <atom_types>  (627) 
c3
c3
c3
c3
c3
os
c
o
c3
c3
hc
hc
hc
hc
hc
hc
hc
hc
hc
h1
h1
hc
hc
hc
hc
hc

>  <target>  (627) 
-2.11

>  <cal>  (627) 
-2.176

$$$$
mobley_6474572
     RDKit          3D

  6  5  0  0  0  0  0  0  0  0999 V2000
   -0.6830    0.1380   -0.2540 C   0  0  0  0  0  0  0  0  0  0  0  0
    0.5270   -0.2530    0.1450 C   0  0  0  0  0  0  0  0  0  0  0  0
    1.6130    0.7690    0.9850 Cl  0  0  0  0  0  0  0  0  0  0  0  0
    0.0000    0.0000    0.0000 H   0  0  0  0  0  0  0  0  0  0  0  0
    0.0000    0.0000    0.0000 H   0  0  0  0  0  0  0  0  0  0  0  0
    0.0000    0.0000    0.0000 H   0  0  0  0  0  0  0  0  0  0  0  0
  1  2  2  3
  2  3  1  0
  1  4  1  0
  1  5  1  0
  2  6  1  0
M  END
>  <partial_charges>  (628) 
-0.217500001192
-0.064099997282
-0.124099999666
0.128800004721
0.128800004721
0.148200005293

>  <partial_bond_orders>  (628) 
2.0
1.0
1.0
1.0
1.0

>  <atom_types>  (628) 
c2
c2
cl
ha
ha
h4

>  <target>  (628) 
-0.59

>  <cal>  (628) 
1.162

$$$$
mobley_8809190
     RDKit          3D

 24 24  0  0  0  0  0  0  0  0999 V2000
   -0.0240    1.0480    0.3160 C   0  0  0  0  0  0  0  0  0  0  0  0
   -0.5550    1.9380   -0.7960 C   0  0  0  0  0  0  0  0  0  0  0  0
    0.3240    1.8600   -2.0440 C   0  0  0  0  0  0  0  0  0  0  0  0
   -0.2150    2.7590   -3.1610 C   0  0  0  0  0  0  0  0  0  0  0  0
    0.6480    2.6860   -4.3950 C   0  0  0  0  0  0  0  0  0  0  0  0
    1.7160    3.5700   -4.5510 C   0  0  0  0  0  0  0  0  0  0  0  0
    2.5150    3.5030   -5.6930 C   0  0  0  0  0  0  0  0  0  0  0  0
    2.2450    2.5530   -6.6780 C   0  0  0  0  0  0  0  0  0  0  0  0
    1.1770    1.6690   -6.5220 C   0  0  0  0  0  0  0  0  0  0  0  0
    0.3790    1.7360   -5.3800 C   0  0  0  0  0  0  0  0  0  0  0  0
    0.0000    0.0000    0.0000 H   0  0  0  0  0  0  0  0  0  0  0  0
    0.0000    0.0000    0.0000 H   0  0  0  0  0  0  0  0  0  0  0  0
    0.0000    0.0000    0.0000 H   0  0  0  0  0  0  0  0  0  0  0  0
    0.0000    0.0000    0.0000 H   0  0  0  0  0  0  0  0  0  0  0  0
    0.0000    0.0000    0.0000 H   0  0  0  0  0  0  0  0  0  0  0  0
    0.0000    0.0000    0.0000 H   0  0  0  0  0  0  0  0  0  0  0  0
    0.0000    0.0000    0.0000 H   0  0  0  0  0  0  0  0  0  0  0  0
    0.0000    0.0000    0.0000 H   0  0  0  0  0  0  0  0  0  0  0  0
    0.0000    0.0000    0.0000 H   0  0  0  0  0  0  0  0  0  0  0  0
    0.0000    0.0000    0.0000 H   0  0  0  0  0  0  0  0  0  0  0  0
    0.0000    0.0000    0.0000 H   0  0  0  0  0  0  0  0  0  0  0  0
    0.0000    0.0000    0.0000 H   0  0  0  0  0  0  0  0  0  0  0  0
    0.0000    0.0000    0.0000 H   0  0  0  0  0  0  0  0  0  0  0  0
    0.0000    0.0000    0.0000 H   0  0  0  0  0  0  0  0  0  0  0  0
  1  2  1  0
  2  3  1  0
  3  4  1  0
  4  5  1  0
  5 10  2  0
  5  6  1  0
  6  7  2  0
  7  8  1  0
  8  9  2  0
  9 10  1  0
  1 11  1  0
  1 12  1  0
  1 13  1  0
  2 14  1  0
  2 15  1  0
  3 16  1  0
  3 17  1  0
  4 18  1  0
  4 19  1  0
  6 20  1  0
  7 21  1  0
  8 22  1  0
  9 23  1  0
 10 24  1  0
M  END
>  <partial_charges>  (629) 
-0.0920000001788
-0.0807999968529
-0.07689999789
-0.0362000018358
-0.0766000002623
-0.127800002694
-0.128600001335
-0.132499992847
-0.128600001335
-0.127800002694
0.0335999988019
0.0335999988019
0.0335999988019
0.0377999991179
0.0377999991179
0.0438000001013
0.0438000001013
0.0469000004232
0.0469000004232
0.130099996924
0.129600003362
0.130500003695
0.129600003362
0.130099996924

>  <partial_bond_orders>  (629) 
1.0
1.0
1.0
1.0
2.0
1.0
2.0
1.0
2.0
1.0
1.0
1.0
1.0
1.0
1.0
1.0
1.0
1.0
1.0
1.0
1.0
1.0
1.0
1.0

>  <atom_types>  (629) 
c3
c3
c3
c3
ca
ca
ca
ca
ca
ca
hc
hc
hc
hc
hc
hc
hc
hc
hc
ha
ha
ha
ha
ha

>  <target>  (629) 
-0.4

>  <cal>  (629) 
-0.227

$$$$
mobley_6522117
     RDKit          3D

 34 34  0  0  0  0  0  0  0  0999 V2000
    3.3870    1.3130    0.7080 C   0  0  0  0  0  0  0  0  0  0  0  0
    2.2480    1.0490   -0.2530 C   0  0  0  0  0  0  0  0  0  0  0  0
    1.0430    0.9260    0.4820 O   0  0  0  0  0  0  0  0  0  0  0  0
   -0.3310    0.6390   -0.3280 P   0  0  0  0  0  0  0  0  0  0  0  0
   -0.6950    1.6950   -1.3330 O   0  0  0  0  0  0  0  0  0  0  0  0
   -1.4320    0.4280    0.8420 O   0  0  0  0  0  0  0  0  0  0  0  0
   -1.2720   -0.6130    1.7910 C   0  0  0  0  0  0  0  0  0  0  0  0
   -2.4350   -0.5820    2.7610 C   0  0  0  0  0  0  0  0  0  0  0  0
   -0.1080   -0.8410   -0.9470 O   0  0  0  0  0  0  0  0  0  0  0  0
   -1.0320   -1.4750   -1.7080 C   0  0  0  0  0  0  0  0  0  0  0  0
   -2.2340   -0.9400   -2.0320 C   0  0  0  0  0  0  0  0  0  0  0  0
   -3.3870   -1.7640   -2.9990 Cl  0  0  0  0  0  0  0  0  0  0  0  0
   -0.6410   -2.8210   -2.2050 C   0  0  0  0  0  0  0  0  0  0  0  0
   -0.9530   -3.9230   -1.4100 C   0  0  0  0  0  0  0  0  0  0  0  0
   -0.6090   -5.2080   -1.8320 C   0  0  0  0  0  0  0  0  0  0  0  0
    0.0480   -5.3890   -3.0490 C   0  0  0  0  0  0  0  0  0  0  0  0
    0.3600   -4.2860   -3.8450 C   0  0  0  0  0  0  0  0  0  0  0  0
    0.0160   -3.0020   -3.4220 C   0  0  0  0  0  0  0  0  0  0  0  0
    0.4260   -1.6710   -4.4470 Cl  0  0  0  0  0  0  0  0  0  0  0  0
    0.4720   -6.9740   -3.5690 Cl  0  0  0  0  0  0  0  0  0  0  0  0
    0.0000    0.0000    0.0000 H   0  0  0  0  0  0  0  0  0  0  0  0
    0.0000    0.0000    0.0000 H   0  0  0  0  0  0  0  0  0  0  0  0
    0.0000    0.0000    0.0000 H   0  0  0  0  0  0  0  0  0  0  0  0
    0.0000    0.0000    0.0000 H   0  0  0  0  0  0  0  0  0  0  0  0
    0.0000    0.0000    0.0000 H   0  0  0  0  0  0  0  0  0  0  0  0
    0.0000    0.0000    0.0000 H   0  0  0  0  0  0  0  0  0  0  0  0
    0.0000    0.0000    0.0000 H   0  0  0  0  0  0  0  0  0  0  0  0
    0.0000    0.0000    0.0000 H   0  0  0  0  0  0  0  0  0  0  0  0
    0.0000    0.0000    0.0000 H   0  0  0  0  0  0  0  0  0  0  0  0
    0.0000    0.0000    0.0000 H   0  0  0  0  0  0  0  0  0  0  0  0
    0.0000    0.0000    0.0000 H   0  0  0  0  0  0  0  0  0  0  0  0
    0.0000    0.0000    0.0000 H   0  0  0  0  0  0  0  0  0  0  0  0
    0.0000    0.0000    0.0000 H   0  0  0  0  0  0  0  0  0  0  0  0
    0.0000    0.0000    0.0000 H   0  0  0  0  0  0  0  0  0  0  0  0
  1  2  1  0
  2  3  1  0
  3  4  1  0
  4  5  2  0
  4  6  1  0
  6  7  1  0
  7  8  1  0
  4  9  1  0
  9 10  1  0
 10 11  2  0
 11 12  1  0
 10 13  1  0
 13 18  2  0
 13 14  1  0
 14 15  2  0
 15 16  1  0
 16 17  2  0
 17 18  1  0
 18 19  1  0
 16 20  1  0
  1 21  1  0
  1 22  1  0
  1 23  1  0
  2 24  1  0
  2 25  1  0
  7 26  1  0
  7 27  1  0
  8 28  1  0
  8 29  1  0
  8 30  1  0
 11 31  1  0
 14 32  1  0
 15 33  1  0
 17 34  1  0
M  END
>  <partial_charges>  (630) 
-0.0969000011683
0.163100004196
-0.569999992847
1.60930001736
-0.787000000477
-0.569999992847
0.163100004196
-0.0969000011683
-0.475600004196
0.187600001693
-0.154799997807
-0.068400003016
-0.0513000003994
-0.0786999985576
-0.130799993873
0.0364000014961
-0.130700007081
0.0570000000298
-0.0702000036836
-0.0794000029564
0.0502000004053
0.0502000004053
0.0502000004053
0.0467999987304
0.0467999987304
0.0467999987304
0.0467999987304
0.0502000004053
0.0502000004053
0.0502000004053
0.182300001383
0.154200002551
0.15530000627
0.163900002837

>  <partial_bond_orders>  (630) 
1.0
1.0
1.0
2.0
1.0
1.0
1.0
1.0
1.0
2.0
1.0
1.0
2.0
1.0
2.0
1.0
2.0
1.0
1.0
1.0
1.0
1.0
1.0
1.0
1.0
1.0
1.0
1.0
1.0
1.0
1.0
1.0
1.0
1.0

>  <atom_types>  (630) 
c3
c3
os
p5
o
os
c3
c3
os
ce
c2
cl
ca
ca
ca
ca
ca
ca
cl
cl
hc
hc
hc
h1
h1
h1
h1
hc
hc
hc
h4
ha
ha
ha

>  <target>  (630) 
-7.07

>  <cal>  (630) 
-9.029

$$$$
mobley_2613240
     RDKit          3D

 20 20  0  0  0  0  0  0  0  0999 V2000
    1.3500   -2.1270   -2.1490 C   0  0  0  0  0  0  0  0  0  0  0  0
    1.9380   -1.0220   -1.4740 O   0  0  0  0  0  0  0  0  0  0  0  0
    1.8850   -1.0360   -0.1120 C   0  0  0  0  0  0  0  0  0  0  0  0
    2.9210   -1.6310    0.6080 C   0  0  0  0  0  0  0  0  0  0  0  0
    2.8780   -1.6520    2.0020 C   0  0  0  0  0  0  0  0  0  0  0  0
    1.8000   -1.0790    2.6760 C   0  0  0  0  0  0  0  0  0  0  0  0
    0.7640   -0.4840    1.9550 C   0  0  0  0  0  0  0  0  0  0  0  0
    0.8070   -0.4630    0.5610 C   0  0  0  0  0  0  0  0  0  0  0  0
   -0.2120    0.1190   -0.1310 O   0  0  0  0  0  0  0  0  0  0  0  0
   -1.2770    0.6820    0.6330 C   0  0  0  0  0  0  0  0  0  0  0  0
    0.0000    0.0000    0.0000 H   0  0  0  0  0  0  0  0  0  0  0  0
    0.0000    0.0000    0.0000 H   0  0  0  0  0  0  0  0  0  0  0  0
    0.0000    0.0000    0.0000 H   0  0  0  0  0  0  0  0  0  0  0  0
    0.0000    0.0000    0.0000 H   0  0  0  0  0  0  0  0  0  0  0  0
    0.0000    0.0000    0.0000 H   0  0  0  0  0  0  0  0  0  0  0  0
    0.0000    0.0000    0.0000 H   0  0  0  0  0  0  0  0  0  0  0  0
    0.0000    0.0000    0.0000 H   0  0  0  0  0  0  0  0  0  0  0  0
    0.0000    0.0000    0.0000 H   0  0  0  0  0  0  0  0  0  0  0  0
    0.0000    0.0000    0.0000 H   0  0  0  0  0  0  0  0  0  0  0  0
    0.0000    0.0000    0.0000 H   0  0  0  0  0  0  0  0  0  0  0  0
  1  2  1  0
  2  3  1  0
  3  8  2  0
  3  4  1  0
  4  5  2  0
  5  6  1  0
  6  7  2  0
  7  8  1  0
  8  9  1  0
  9 10  1  0
  1 11  1  0
  1 12  1  0
  1 13  1  0
  4 14  1  0
  5 15  1  0
  6 16  1  0
  7 17  1  0
 10 18  1  0
 10 19  1  0
 10 20  1  0
M  END
>  <partial_charges>  (631) 
0.115299999714
-0.322899997234
0.0899000018835
-0.156399995089
-0.128299996257
-0.128299996257
-0.156399995089
0.0899000018835
-0.322899997234
0.115500003099
0.0423000007868
0.0423000007868
0.0423000007868
0.141100004315
0.134399995208
0.134399995208
0.141100004315
0.0423000007868
0.0423000007868
0.0423000007868

>  <partial_bond_orders>  (631) 
1.0
1.0
2.0
1.0
2.0
1.0
2.0
1.0
1.0
1.0
1.0
1.0
1.0
1.0
1.0
1.0
1.0
1.0
1.0
1.0

>  <atom_types>  (631) 
c3
os
ca
ca
ca
ca
ca
ca
os
c3
h1
h1
h1
ha
ha
ha
ha
h1
h1
h1

>  <target>  (631) 
-5.33

>  <cal>  (631) 
-4.055

$$$$
mobley_5760563
     RDKit          3D

 13 12  0  0  0  0  0  0  0  0999 V2000
    0.9060    0.5940   -0.1920 C   0  0  0  0  0  0  0  0  0  0  0  0
    1.0190    1.5710    0.8310 O   0  0  0  0  0  0  0  0  0  0  0  0
    2.3590    2.5050    0.8880 S   0  0  0  0  0  0  0  0  0  0  0  0
    2.4490    3.2410   -0.3600 O   0  0  0  0  0  0  0  0  0  0  0  0
    3.4630    1.6800    1.3420 O   0  0  0  0  0  0  0  0  0  0  0  0
    1.9980    3.5680    2.0770 O   0  0  0  0  0  0  0  0  0  0  0  0
    2.9500    4.5630    2.4210 C   0  0  0  0  0  0  0  0  0  0  0  0
    0.0000    0.0000    0.0000 H   0  0  0  0  0  0  0  0  0  0  0  0
    0.0000    0.0000    0.0000 H   0  0  0  0  0  0  0  0  0  0  0  0
    0.0000    0.0000    0.0000 H   0  0  0  0  0  0  0  0  0  0  0  0
    0.0000    0.0000    0.0000 H   0  0  0  0  0  0  0  0  0  0  0  0
    0.0000    0.0000    0.0000 H   0  0  0  0  0  0  0  0  0  0  0  0
    0.0000    0.0000    0.0000 H   0  0  0  0  0  0  0  0  0  0  0  0
  1  2  1  0
  2  3  1  0
  3  4  2  0
  3  5  2  0
  3  6  1  0
  6  7  1  0
  1  8  1  0
  1  9  1  0
  1 10  1  0
  7 11  1  0
  7 12  1  0
  7 13  1  0
M  END
>  <partial_charges>  (632) 
0.146099999547
-0.541100025177
1.81690001488
-0.676800012589
-0.676800012589
-0.541100025177
0.146099999547
0.0544999986887
0.0544999986887
0.0544999986887
0.0544999986887
0.0544999986887
0.0544999986887

>  <partial_bond_orders>  (632) 
1.0
1.0
2.0
2.0
1.0
1.0
1.0
1.0
1.0
1.0
1.0
1.0

>  <atom_types>  (632) 
c3
os
s6
o
o
os
c3
h1
h1
h1
h1
h1
h1

>  <target>  (632) 
-5.1

>  <cal>  (632) 
-8.411

$$$$
mobley_8006582
     RDKit          3D

 15 15  0  0  0  0  0  0  0  0999 V2000
    1.0730    0.1860    0.6770 C   0  0  0  0  0  0  0  0  0  0  0  0
   -0.0210    1.2200    0.4070 C   0  0  0  0  0  0  0  0  0  0  0  0
   -1.0220    0.5470   -0.5270 C   0  0  0  0  0  0  0  0  0  0  0  0
   -0.7690   -0.9410   -0.3550 C   0  0  0  0  0  0  0  0  0  0  0  0
    0.7400   -1.0120   -0.2020 C   0  0  0  0  0  0  0  0  0  0  0  0
    0.0000    0.0000    0.0000 H   0  0  0  0  0  0  0  0  0  0  0  0
    0.0000    0.0000    0.0000 H   0  0  0  0  0  0  0  0  0  0  0  0
    0.0000    0.0000    0.0000 H   0  0  0  0  0  0  0  0  0  0  0  0
    0.0000    0.0000    0.0000 H   0  0  0  0  0  0  0  0  0  0  0  0
    0.0000    0.0000    0.0000 H   0  0  0  0  0  0  0  0  0  0  0  0
    0.0000    0.0000    0.0000 H   0  0  0  0  0  0  0  0  0  0  0  0
    0.0000    0.0000    0.0000 H   0  0  0  0  0  0  0  0  0  0  0  0
    0.0000    0.0000    0.0000 H   0  0  0  0  0  0  0  0  0  0  0  0
    0.0000    0.0000    0.0000 H   0  0  0  0  0  0  0  0  0  0  0  0
    0.0000    0.0000    0.0000 H   0  0  0  0  0  0  0  0  0  0  0  0
  1  5  1  0
  1  2  1  0
  2  3  1  0
  3  4  1  0
  4  5  1  0
  1  6  1  0
  1  7  1  0
  2  8  1  0
  2  9  1  0
  3 10  1  0
  3 11  1  0
  4 12  1  0
  4 13  1  0
  5 14  1  0
  5 15  1  0
M  END
>  <partial_charges>  (633) 
-0.0795999988914
-0.0794999971986
-0.0794999971986
-0.0794999971986
-0.0794999971986
0.0397999994457
0.0397999994457
0.0397999994457
0.0397999994457
0.0397999994457
0.0397999994457
0.0397999994457
0.0397999994457
0.0397999994457
0.0397999994457

>  <partial_bond_orders>  (633) 
1.0
1.0
1.0
1.0
1.0
1.0
1.0
1.0
1.0
1.0
1.0
1.0
1.0
1.0
1.0

>  <atom_types>  (633) 
c3
c3
c3
c3
c3
hc
hc
hc
hc
hc
hc
hc
hc
hc
hc

>  <target>  (633) 
1.2

>  <cal>  (633) 
1.648

$$$$
mobley_2577969
     RDKit          3D

 26 29  0  0  0  0  0  0  0  0999 V2000
    5.0010    4.9500    4.0350 C   0  0  0  0  0  0  0  0  0  0  0  0
    5.3100    4.5610    2.7330 C   0  0  0  0  0  0  0  0  0  0  0  0
    4.4550    3.7060    2.0220 C   0  0  0  0  0  0  0  0  0  0  0  0
    4.7480    3.3030    0.7120 C   0  0  0  0  0  0  0  0  0  0  0  0
    3.8870    2.4500    0.0170 C   0  0  0  0  0  0  0  0  0  0  0  0
    2.7100    1.9780    0.6140 C   0  0  0  0  0  0  0  0  0  0  0  0
    1.8350    1.1220   -0.0710 C   0  0  0  0  0  0  0  0  0  0  0  0
    0.6700    0.6630    0.5400 C   0  0  0  0  0  0  0  0  0  0  0  0
    0.3610    1.0520    1.8430 C   0  0  0  0  0  0  0  0  0  0  0  0
    1.2150    1.9080    2.5530 C   0  0  0  0  0  0  0  0  0  0  0  0
    2.3980    2.3740    1.9350 C   0  0  0  0  0  0  0  0  0  0  0  0
    3.2720    3.2390    2.6400 C   0  0  0  0  0  0  0  0  0  0  0  0
    2.9600    3.6350    3.9620 C   0  0  0  0  0  0  0  0  0  0  0  0
    3.8350    4.4920    4.6460 C   0  0  0  0  0  0  0  0  0  0  0  0
    1.7830    3.1630    4.5580 C   0  0  0  0  0  0  0  0  0  0  0  0
    0.9220    2.3110    3.8630 C   0  0  0  0  0  0  0  0  0  0  0  0
    0.0000    0.0000    0.0000 H   0  0  0  0  0  0  0  0  0  0  0  0
    0.0000    0.0000    0.0000 H   0  0  0  0  0  0  0  0  0  0  0  0
    0.0000    0.0000    0.0000 H   0  0  0  0  0  0  0  0  0  0  0  0
    0.0000    0.0000    0.0000 H   0  0  0  0  0  0  0  0  0  0  0  0
    0.0000    0.0000    0.0000 H   0  0  0  0  0  0  0  0  0  0  0  0
    0.0000    0.0000    0.0000 H   0  0  0  0  0  0  0  0  0  0  0  0
    0.0000    0.0000    0.0000 H   0  0  0  0  0  0  0  0  0  0  0  0
    0.0000    0.0000    0.0000 H   0  0  0  0  0  0  0  0  0  0  0  0
    0.0000    0.0000    0.0000 H   0  0  0  0  0  0  0  0  0  0  0  0
    0.0000    0.0000    0.0000 H   0  0  0  0  0  0  0  0  0  0  0  0
  1 14  2  0
  1  2  1  0
  2  3  2  0
  3 12  1  0
  3  4  1  0
  4  5  2  0
  5  6  1  0
  6 11  2  0
  6  7  1  0
  7  8  2  0
  8  9  1  0
  9 10  2  0
 10 16  1  0
 10 11  1  0
 11 12  1  0
 12 13  2  0
 13 14  1  0
 13 15  1  0
 15 16  2  0
  1 17  1  0
  2 18  1  0
  4 19  1  0
  5 20  1  0
  7 21  1  0
  8 22  1  0
  9 23  1  0
 14 24  1  0
 15 25  1  0
 16 26  1  0
M  END
>  <partial_charges>  (634) 
-0.127399995923
-0.113899998367
-0.0333000011742
-0.114500001073
-0.114500001073
-0.0333000011742
-0.113899998367
-0.12729999423
-0.113899998367
-0.0333000011742
-0.0153999999166
-0.0153999999166
-0.0333000011742
-0.113899998367
-0.114500001073
-0.114500001073
0.133000001311
0.133599996567
0.133000001311
0.133000001311
0.133599996567
0.133000001311
0.133599996567
0.133599996567
0.133000001311
0.133000001311

>  <partial_bond_orders>  (634) 
2.0
1.0
2.0
1.0
1.0
2.0
1.0
2.0
1.0
2.0
1.0
2.0
1.0
1.0
1.0
2.0
1.0
1.0
2.0
1.0
1.0
1.0
1.0
1.0
1.0
1.0
1.0
1.0
1.0

>  <atom_types>  (634) 
ca
ca
ca
ca
ca
ca
ca
ca
ca
ca
ca
ca
ca
ca
ca
ca
ha
ha
ha
ha
ha
ha
ha
ha
ha
ha

>  <target>  (634) 
-4.52

>  <cal>  (634) 
-6.79

$$$$
mobley_2972345
     RDKit          3D

 26 28  0  0  0  0  0  0  0  0999 V2000
    2.0530   -0.1060   -0.6360 C   0  0  0  0  0  0  0  0  0  0  0  0
    0.7020    0.1770   -0.8100 C   0  0  0  0  0  0  0  0  0  0  0  0
    0.2470    0.6820   -2.0280 C   0  0  0  0  0  0  0  0  0  0  0  0
    1.1430    0.9190   -3.0810 C   0  0  0  0  0  0  0  0  0  0  0  0
    2.5060    0.6330   -2.9060 C   0  0  0  0  0  0  0  0  0  0  0  0
    2.9500    0.1150   -1.6800 C   0  0  0  0  0  0  0  0  0  0  0  0
    3.4950    0.8290   -4.0270 C   0  0  0  0  0  0  0  0  0  0  0  0
    3.0240    1.7330   -5.1390 C   0  0  0  0  0  0  0  0  0  0  0  0
    3.9610    2.2620   -6.0390 C   0  0  0  0  0  0  0  0  0  0  0  0
    3.5500    3.0750   -7.0950 C   0  0  0  0  0  0  0  0  0  0  0  0
    2.1990    3.3580   -7.2690 C   0  0  0  0  0  0  0  0  0  0  0  0
    1.2580    2.8290   -6.3870 C   0  0  0  0  0  0  0  0  0  0  0  0
    1.6610    2.0190   -5.3140 C   0  0  0  0  0  0  0  0  0  0  0  0
    0.6170    1.4310   -4.3980 C   0  0  0  0  0  0  0  0  0  0  0  0
    0.0000    0.0000    0.0000 H   0  0  0  0  0  0  0  0  0  0  0  0
    0.0000    0.0000    0.0000 H   0  0  0  0  0  0  0  0  0  0  0  0
    0.0000    0.0000    0.0000 H   0  0  0  0  0  0  0  0  0  0  0  0
    0.0000    0.0000    0.0000 H   0  0  0  0  0  0  0  0  0  0  0  0
    0.0000    0.0000    0.0000 H   0  0  0  0  0  0  0  0  0  0  0  0
    0.0000    0.0000    0.0000 H   0  0  0  0  0  0  0  0  0  0  0  0
    0.0000    0.0000    0.0000 H   0  0  0  0  0  0  0  0  0  0  0  0
    0.0000    0.0000    0.0000 H   0  0  0  0  0  0  0  0  0  0  0  0
    0.0000    0.0000    0.0000 H   0  0  0  0  0  0  0  0  0  0  0  0
    0.0000    0.0000    0.0000 H   0  0  0  0  0  0  0  0  0  0  0  0
    0.0000    0.0000    0.0000 H   0  0  0  0  0  0  0  0  0  0  0  0
    0.0000    0.0000    0.0000 H   0  0  0  0  0  0  0  0  0  0  0  0
  1  6  2  0
  1  2  1  0
  2  3  2  0
  3  4  1  0
  4 14  1  0
  4  5  2  0
  5  6  1  0
  5  7  1  0
  7  8  1  0
  8 13  2  0
  8  9  1  0
  9 10  2  0
 10 11  1  0
 11 12  2  0
 12 13  1  0
 13 14  1  0
  1 15  1  0
  2 16  1  0
  3 17  1  0
  6 18  1  0
  7 19  1  0
  7 20  1  0
  9 21  1  0
 10 22  1  0
 11 23  1  0
 12 24  1  0
 14 25  1  0
 14 26  1  0
M  END
>  <partial_charges>  (635) 
-0.129399999976
-0.129199996591
-0.128499999642
-0.0680999979377
-0.0680999979377
-0.128499999642
0.00879999995232
-0.0680999979377
-0.128499999642
-0.129199996591
-0.129199996591
-0.128499999642
-0.0680999979377
0.00879999995232
0.131400004029
0.131400004029
0.129500001669
0.129500001669
0.0604999996722
0.0604999996722
0.129500001669
0.131400004029
0.131400004029
0.129500001669
0.0604999996722
0.0604999996722

>  <partial_bond_orders>  (635) 
2.0
1.0
2.0
1.0
1.0
2.0
1.0
1.0
1.0
2.0
1.0
2.0
1.0
2.0
1.0
1.0
1.0
1.0
1.0
1.0
1.0
1.0
1.0
1.0
1.0
1.0
1.0
1.0

>  <atom_types>  (635) 
ca
ca
ca
ca
ca
ca
c3
ca
ca
ca
ca
ca
ca
c3
ha
ha
ha
ha
hc
hc
ha
ha
ha
ha
hc
hc

>  <target>  (635) 
-3.78

>  <cal>  (635) 
-4.304

$$$$
mobley_3663158
     RDKit          3D

 19 20  0  0  0  0  0  0  0  0999 V2000
   -0.4970   -2.0340    0.4940 C   0  0  0  0  0  0  0  0  0  0  0  0
    0.3500   -1.0280    0.0390 C   0  0  0  0  0  0  0  0  0  0  0  0
    1.6480   -1.3370   -0.3660 C   0  0  0  0  0  0  0  0  0  0  0  0
    2.1170   -2.6600   -0.3220 C   0  0  0  0  0  0  0  0  0  0  0  0
    3.4210   -2.9900   -0.7270 C   0  0  0  0  0  0  0  0  0  0  0  0
    3.8690   -4.3100   -0.6760 C   0  0  0  0  0  0  0  0  0  0  0  0
    3.0230   -5.3170   -0.2210 C   0  0  0  0  0  0  0  0  0  0  0  0
    1.7240   -5.0070    0.1850 C   0  0  0  0  0  0  0  0  0  0  0  0
    1.2560   -3.6840    0.1400 C   0  0  0  0  0  0  0  0  0  0  0  0
   -0.0480   -3.3540    0.5450 C   0  0  0  0  0  0  0  0  0  0  0  0
    5.1360   -4.6140   -1.0710 O   0  0  0  0  0  0  0  0  0  0  0  0
    0.0000    0.0000    0.0000 H   0  0  0  0  0  0  0  0  0  0  0  0
    0.0000    0.0000    0.0000 H   0  0  0  0  0  0  0  0  0  0  0  0
    0.0000    0.0000    0.0000 H   0  0  0  0  0  0  0  0  0  0  0  0
    0.0000    0.0000    0.0000 H   0  0  0  0  0  0  0  0  0  0  0  0
    0.0000    0.0000    0.0000 H   0  0  0  0  0  0  0  0  0  0  0  0
    0.0000    0.0000    0.0000 H   0  0  0  0  0  0  0  0  0  0  0  0
    0.0000    0.0000    0.0000 H   0  0  0  0  0  0  0  0  0  0  0  0
    0.0000    0.0000    0.0000 H   0  0  0  0  0  0  0  0  0  0  0  0
  1 10  2  0
  1  2  1  0
  2  3  2  0
  3  4  1  0
  4  9  2  0
  4  5  1  0
  5  6  2  0
  6  7  1  0
  7  8  2  0
  8  9  1  0
  9 10  1  0
  6 11  1  0
  1 12  1  0
  2 13  1  0
  3 14  1  0
  5 15  1  0
  7 16  1  0
  8 17  1  0
 10 18  1  0
 11 19  1  0
M  END
>  <partial_charges>  (636) 
-0.137400001287
-0.117399998009
-0.126000002027
-0.00319999991916
-0.158099994063
0.120200000703
-0.194199994206
-0.0795999988914
-0.0672999992967
-0.10719999671
-0.498299986124
0.131899997592
0.133200004697
0.134399995208
0.151199996471
0.133399993181
0.134700000286
0.130899995565
0.418799996376

>  <partial_bond_orders>  (636) 
2.0
1.0
2.0
1.0
2.0
1.0
2.0
1.0
2.0
1.0
1.0
1.0
1.0
1.0
1.0
1.0
1.0
1.0
1.0
1.0

>  <atom_types>  (636) 
ca
ca
ca
ca
ca
ca
ca
ca
ca
ca
oh
ha
ha
ha
ha
ha
ha
ha
ho

>  <target>  (636) 
-8.11

>  <cal>  (636) 
-7.849

$$$$
mobley_900088
     RDKit          3D

 16 15  0  0  0  0  0  0  0  0999 V2000
   -1.6040   -0.3710   -1.0850 C   0  0  0  0  0  0  0  0  0  0  0  0
   -0.5250    0.3840   -0.3470 C   0  0  0  0  0  0  0  0  0  0  0  0
   -0.5700    1.7290   -0.3530 C   0  0  0  0  0  0  0  0  0  0  0  0
    0.5260   -0.3840    0.3460 C   0  0  0  0  0  0  0  0  0  0  0  0
    1.0130   -0.0410    1.5530 C   0  0  0  0  0  0  0  0  0  0  0  0
    1.0850   -1.6150   -0.3280 C   0  0  0  0  0  0  0  0  0  0  0  0
    0.0000    0.0000    0.0000 H   0  0  0  0  0  0  0  0  0  0  0  0
    0.0000    0.0000    0.0000 H   0  0  0  0  0  0  0  0  0  0  0  0
    0.0000    0.0000    0.0000 H   0  0  0  0  0  0  0  0  0  0  0  0
    0.0000    0.0000    0.0000 H   0  0  0  0  0  0  0  0  0  0  0  0
    0.0000    0.0000    0.0000 H   0  0  0  0  0  0  0  0  0  0  0  0
    0.0000    0.0000    0.0000 H   0  0  0  0  0  0  0  0  0  0  0  0
    0.0000    0.0000    0.0000 H   0  0  0  0  0  0  0  0  0  0  0  0
    0.0000    0.0000    0.0000 H   0  0  0  0  0  0  0  0  0  0  0  0
    0.0000    0.0000    0.0000 H   0  0  0  0  0  0  0  0  0  0  0  0
    0.0000    0.0000    0.0000 H   0  0  0  0  0  0  0  0  0  0  0  0
  1  2  1  0
  2  3  2  3
  2  4  1  0
  4  5  2  3
  4  6  1  0
  1  7  1  0
  1  8  1  0
  1  9  1  0
  3 10  1  0
  3 11  1  0
  5 12  1  0
  5 13  1  0
  6 14  1  0
  6 15  1  0
  6 16  1  0
M  END
>  <partial_charges>  (637) 
-0.0608000010252
-0.075900003314
-0.218799993396
-0.075900003314
-0.218799993396
-0.0606999993324
0.0427000001073
0.0427000001073
0.0427000001073
0.113700002432
0.113700002432
0.113700002432
0.113700002432
0.0427000001073
0.0427000001073
0.0427000001073

>  <partial_bond_orders>  (637) 
1.0
2.0
1.0
2.0
1.0
1.0
1.0
1.0
1.0
1.0
1.0
1.0
1.0
1.0
1.0

>  <atom_types>  (637) 
c3
ce
c2
ce
c2
c3
hc
hc
hc
ha
ha
ha
ha
hc
hc
hc

>  <target>  (637) 
0.4

>  <cal>  (637) 
1.862

$$$$
mobley_6091882
     RDKit          3D

  6  5  0  0  0  0  0  0  0  0999 V2000
    0.2840    1.0300   -0.1840 C   0  0  0  0  0  0  0  0  0  0  0  0
   -0.6400    1.9560   -0.4470 C   0  0  0  0  0  0  0  0  0  0  0  0
    0.0000    0.0000    0.0000 H   0  0  0  0  0  0  0  0  0  0  0  0
    0.0000    0.0000    0.0000 H   0  0  0  0  0  0  0  0  0  0  0  0
    0.0000    0.0000    0.0000 H   0  0  0  0  0  0  0  0  0  0  0  0
    0.0000    0.0000    0.0000 H   0  0  0  0  0  0  0  0  0  0  0  0
  1  2  2  3
  1  3  1  0
  1  4  1  0
  2  5  1  0
  2  6  1  0
M  END
>  <partial_charges>  (638) 
-0.217999994755
-0.217899993062
0.108999997377
0.108999997377
0.108999997377
0.108999997377

>  <partial_bond_orders>  (638) 
2.0
1.0
1.0
1.0
1.0

>  <atom_types>  (638) 
c2
c2
ha
ha
ha
ha

>  <target>  (638) 
1.28

>  <cal>  (638) 
2.328

$$$$
mobley_2725802
     RDKit          3D

 19 19  0  0  0  0  0  0  0  0999 V2000
    0.1450   -2.7770    4.2010 C   0  0  0  0  0  0  0  0  0  0  0  0
   -0.8580   -2.3750    3.1480 C   0  0  0  0  0  0  0  0  0  0  0  0
   -2.0620   -2.3650    3.4060 O   0  0  0  0  0  0  0  0  0  0  0  0
   -0.3270   -2.0400    1.9170 N   0  0  0  0  0  0  0  0  0  0  0  0
    1.0860   -2.0290    1.5490 C   0  0  0  0  0  0  0  0  0  0  0  0
    1.0830   -1.8650    0.0350 C   0  0  0  0  0  0  0  0  0  0  0  0
   -0.1850   -1.0590   -0.2180 C   0  0  0  0  0  0  0  0  0  0  0  0
   -1.1610   -1.6370    0.7940 C   0  0  0  0  0  0  0  0  0  0  0  0
    0.0000    0.0000    0.0000 H   0  0  0  0  0  0  0  0  0  0  0  0
    0.0000    0.0000    0.0000 H   0  0  0  0  0  0  0  0  0  0  0  0
    0.0000    0.0000    0.0000 H   0  0  0  0  0  0  0  0  0  0  0  0
    0.0000    0.0000    0.0000 H   0  0  0  0  0  0  0  0  0  0  0  0
    0.0000    0.0000    0.0000 H   0  0  0  0  0  0  0  0  0  0  0  0
    0.0000    0.0000    0.0000 H   0  0  0  0  0  0  0  0  0  0  0  0
    0.0000    0.0000    0.0000 H   0  0  0  0  0  0  0  0  0  0  0  0
    0.0000    0.0000    0.0000 H   0  0  0  0  0  0  0  0  0  0  0  0
    0.0000    0.0000    0.0000 H   0  0  0  0  0  0  0  0  0  0  0  0
    0.0000    0.0000    0.0000 H   0  0  0  0  0  0  0  0  0  0  0  0
    0.0000    0.0000    0.0000 H   0  0  0  0  0  0  0  0  0  0  0  0
  1  2  1  0
  2  3  2  0
  2  4  1  0
  4  8  1  0
  4  5  1  0
  5  6  1  0
  6  7  1  0
  7  8  1  0
  1  9  1  0
  1 10  1  0
  1 11  1  0
  5 12  1  0
  5 13  1  0
  6 14  1  0
  6 15  1  0
  7 16  1  0
  7 17  1  0
  8 18  1  0
  8 19  1  0
M  END
>  <partial_charges>  (639) 
-0.168200001121
0.668099999428
-0.610000014305
-0.490700006485
0.0976999998093
-0.091899998486
-0.091899998486
0.0976999998093
0.0639000013471
0.0639000013471
0.0639000013471
0.0461999997497
0.0461999997497
0.0531999990344
0.0531999990344
0.0531999990344
0.0531999990344
0.0461999997497
0.0461999997497

>  <partial_bond_orders>  (639) 
1.0
2.0
1.0
1.0
1.0
1.0
1.0
1.0
1.0
1.0
1.0
1.0
1.0
1.0
1.0
1.0
1.0
1.0
1.0

>  <atom_types>  (639) 
c3
c
o
n
c3
c3
c3
c3
hc
hc
hc
h1
h1
hc
hc
hc
hc
h1
h1

>  <target>  (639) 
-9.8

>  <cal>  (639) 
-7.831

$$$$
mobley_2929847
     RDKit          3D

 17 16  0  0  0  0  0  0  0  0999 V2000
    0.7430   -1.0140   -0.8460 C   0  0  0  0  0  0  0  0  0  0  0  0
    0.5820   -0.0020    0.2910 C   0  0  0  0  0  0  0  0  0  0  0  0
    1.5850    1.1390    0.1180 C   0  0  0  0  0  0  0  0  0  0  0  0
   -0.8440    0.5570    0.3520 C   0  0  0  0  0  0  0  0  0  0  0  0
   -1.8640   -0.5330    0.5780 C   0  0  0  0  0  0  0  0  0  0  0  0
   -1.8730   -1.2650    1.5600 O   0  0  0  0  0  0  0  0  0  0  0  0
   -2.7600   -0.6360   -0.4340 O   0  0  0  0  0  0  0  0  0  0  0  0
    0.0000    0.0000    0.0000 H   0  0  0  0  0  0  0  0  0  0  0  0
    0.0000    0.0000    0.0000 H   0  0  0  0  0  0  0  0  0  0  0  0
    0.0000    0.0000    0.0000 H   0  0  0  0  0  0  0  0  0  0  0  0
    0.0000    0.0000    0.0000 H   0  0  0  0  0  0  0  0  0  0  0  0
    0.0000    0.0000    0.0000 H   0  0  0  0  0  0  0  0  0  0  0  0
    0.0000    0.0000    0.0000 H   0  0  0  0  0  0  0  0  0  0  0  0
    0.0000    0.0000    0.0000 H   0  0  0  0  0  0  0  0  0  0  0  0
    0.0000    0.0000    0.0000 H   0  0  0  0  0  0  0  0  0  0  0  0
    0.0000    0.0000    0.0000 H   0  0  0  0  0  0  0  0  0  0  0  0
    0.0000    0.0000    0.0000 H   0  0  0  0  0  0  0  0  0  0  0  0
  1  2  1  0
  2  3  1  0
  2  4  1  0
  4  5  1  0
  5  6  2  0
  5  7  1  0
  1  8  1  0
  1  9  1  0
  1 10  1  0
  2 11  1  0
  3 12  1  0
  3 13  1  0
  3 14  1  0
  4 15  1  0
  4 16  1  0
  7 17  1  0
M  END
>  <partial_charges>  (640) 
-0.104099996388
-0.0562999993563
-0.104099996388
-0.124300003052
0.639800012112
-0.552799999714
-0.617600023746
0.0438000001013
0.0438000001013
0.0438000001013
0.0531999990344
0.0438000001013
0.0438000001013
0.0438000001013
0.0798999965191
0.0798999965191
0.44319999218

>  <partial_bond_orders>  (640) 
1.0
1.0
1.0
1.0
2.0
1.0
1.0
1.0
1.0
1.0
1.0
1.0
1.0
1.0
1.0
1.0

>  <atom_types>  (640) 
c3
c3
c3
c3
c
o
oh
hc
hc
hc
hc
hc
hc
hc
hc
hc
ho

>  <target>  (640) 
-6.09

>  <cal>  (640) 
-8.844

$$$$
mobley_9121449
     RDKit          3D

 10  9  0  0  0  0  0  0  0  0999 V2000
    1.0320    0.2740    0.2460 C   0  0  0  0  0  0  0  0  0  0  0  0
    1.4680   -0.3550    1.5590 C   0  0  0  0  0  0  0  0  0  0  0  0
    1.3990   -1.8210    1.4970 C   0  0  0  0  0  0  0  0  0  0  0  0
    1.3440   -3.0190    1.4500 C   0  0  0  0  0  0  0  0  0  0  0  0
    0.0000    0.0000    0.0000 H   0  0  0  0  0  0  0  0  0  0  0  0
    0.0000    0.0000    0.0000 H   0  0  0  0  0  0  0  0  0  0  0  0
    0.0000    0.0000    0.0000 H   0  0  0  0  0  0  0  0  0  0  0  0
    0.0000    0.0000    0.0000 H   0  0  0  0  0  0  0  0  0  0  0  0
    0.0000    0.0000    0.0000 H   0  0  0  0  0  0  0  0  0  0  0  0
    0.0000    0.0000    0.0000 H   0  0  0  0  0  0  0  0  0  0  0  0
  1  2  1  0
  2  3  1  0
  3  4  3  0
  1  5  1  0
  1  6  1  0
  1  7  1  0
  2  8  1  0
  2  9  1  0
  4 10  1  0
M  END
>  <partial_charges>  (641) 
-0.089699998498
-0.00419999985024
-0.139100000262
-0.162799999118
0.0392000004649
0.0392000004649
0.0392000004649
0.0575000010431
0.0575000010431
0.163200005889

>  <partial_bond_orders>  (641) 
1.0
1.0
3.0
1.0
1.0
1.0
1.0
1.0
1.0

>  <atom_types>  (641) 
c3
c3
c1
c1
hc
hc
hc
hc
hc
ha

>  <target>  (641) 
-0.16

>  <cal>  (641) 
0.284

$$$$
mobley_9100956
     RDKit          3D

 21 21  0  0  0  0  0  0  0  0999 V2000
    3.3740   -3.4620   -2.4150 C   0  0  0  0  0  0  0  0  0  0  0  0
    2.1480   -2.7020   -1.9120 C   0  0  0  0  0  0  0  0  0  0  0  0
    2.0620   -2.7650   -0.3810 C   0  0  0  0  0  0  0  0  0  0  0  0
    0.8740   -1.9670    0.1500 C   0  0  0  0  0  0  0  0  0  0  0  0
    0.8990   -0.5230   -0.3430 C   0  0  0  0  0  0  0  0  0  0  0  0
    0.9870   -0.4520   -1.8650 C   0  0  0  0  0  0  0  0  0  0  0  0
    2.1750   -1.2470   -2.3990 C   0  0  0  0  0  0  0  0  0  0  0  0
    0.0000    0.0000    0.0000 H   0  0  0  0  0  0  0  0  0  0  0  0
    0.0000    0.0000    0.0000 H   0  0  0  0  0  0  0  0  0  0  0  0
    0.0000    0.0000    0.0000 H   0  0  0  0  0  0  0  0  0  0  0  0
    0.0000    0.0000    0.0000 H   0  0  0  0  0  0  0  0  0  0  0  0
    0.0000    0.0000    0.0000 H   0  0  0  0  0  0  0  0  0  0  0  0
    0.0000    0.0000    0.0000 H   0  0  0  0  0  0  0  0  0  0  0  0
    0.0000    0.0000    0.0000 H   0  0  0  0  0  0  0  0  0  0  0  0
    0.0000    0.0000    0.0000 H   0  0  0  0  0  0  0  0  0  0  0  0
    0.0000    0.0000    0.0000 H   0  0  0  0  0  0  0  0  0  0  0  0
    0.0000    0.0000    0.0000 H   0  0  0  0  0  0  0  0  0  0  0  0
    0.0000    0.0000    0.0000 H   0  0  0  0  0  0  0  0  0  0  0  0
    0.0000    0.0000    0.0000 H   0  0  0  0  0  0  0  0  0  0  0  0
    0.0000    0.0000    0.0000 H   0  0  0  0  0  0  0  0  0  0  0  0
    0.0000    0.0000    0.0000 H   0  0  0  0  0  0  0  0  0  0  0  0
  1  2  1  0
  2  7  1  0
  2  3  1  0
  3  4  1  0
  4  5  1  0
  5  6  1  0
  6  7  1  0
  1  8  1  0
  1  9  1  0
  1 10  1  0
  2 11  1  0
  3 12  1  0
  3 13  1  0
  4 14  1  0
  4 15  1  0
  5 16  1  0
  5 17  1  0
  6 18  1  0
  6 19  1  0
  7 20  1  0
  7 21  1  0
M  END
>  <partial_charges>  (642) 
-0.0888999998569
-0.0661000013351
-0.0724000036716
-0.0756999999285
-0.075900003314
-0.0756999999285
-0.0724000036716
0.0331999994814
0.0331999994814
0.0331999994814
0.0449000000954
0.0386000014842
0.0386000014842
0.0379000008106
0.0379000008106
0.0384000018239
0.0384000018239
0.0379000008106
0.0379000008106
0.0386000014842
0.0386000014842

>  <partial_bond_orders>  (642) 
1.0
1.0
1.0
1.0
1.0
1.0
1.0
1.0
1.0
1.0
1.0
1.0
1.0
1.0
1.0
1.0
1.0
1.0
1.0
1.0
1.0

>  <atom_types>  (642) 
c3
c3
c3
c3
c3
c3
c3
hc
hc
hc
hc
hc
hc
hc
hc
hc
hc
hc
hc
hc
hc

>  <target>  (642) 
1.7

>  <cal>  (642) 
1.679

$$$$
mobley_1977493
     RDKit          3D

 11 10  0  0  0  0  0  0  0  0999 V2000
    0.3670    0.5010    0.9010 C   0  0  0  0  0  0  0  0  0  0  0  0
    0.8900   -0.5270    1.8940 C   0  0  0  0  0  0  0  0  0  0  0  0
    1.5180    0.0930    3.1360 C   0  0  0  0  0  0  0  0  0  0  0  0
    2.1150   -1.1410    4.2690 Cl  0  0  0  0  0  0  0  0  0  0  0  0
    0.0000    0.0000    0.0000 H   0  0  0  0  0  0  0  0  0  0  0  0
    0.0000    0.0000    0.0000 H   0  0  0  0  0  0  0  0  0  0  0  0
    0.0000    0.0000    0.0000 H   0  0  0  0  0  0  0  0  0  0  0  0
    0.0000    0.0000    0.0000 H   0  0  0  0  0  0  0  0  0  0  0  0
    0.0000    0.0000    0.0000 H   0  0  0  0  0  0  0  0  0  0  0  0
    0.0000    0.0000    0.0000 H   0  0  0  0  0  0  0  0  0  0  0  0
    0.0000    0.0000    0.0000 H   0  0  0  0  0  0  0  0  0  0  0  0
  1  2  1  0
  2  3  1  0
  3  4  1  0
  1  5  1  0
  1  6  1  0
  1  7  1  0
  2  8  1  0
  2  9  1  0
  3 10  1  0
  3 11  1  0
M  END
>  <partial_charges>  (643) 
-0.0935000032187
-0.0947000011802
0.0403999984264
-0.200299993157
0.0377999991179
0.0377999991179
0.0377999991179
0.0540999993682
0.0540999993682
0.0631999969482
0.0631999969482

>  <partial_bond_orders>  (643) 
1.0
1.0
1.0
1.0
1.0
1.0
1.0
1.0
1.0
1.0

>  <atom_types>  (643) 
c3
c3
c3
cl
hc
hc
hc
hc
hc
h1
h1

>  <target>  (643) 
-0.33

>  <cal>  (643) 
0.973

$$$$
